@<TRIPOS>MOLECULE
AVX101140_0
   37    40     1     0     0
SMALL
No Charge or Current Charge


@<TRIPOS>ATOM
      1 C1          0.2980   -1.1770    1.7790 ca        1 MOL     -0.131403
      2 C2         -0.3480    2.9300    1.6280 ca        1 MOL     -0.177803
      3 C3          0.5200   -2.4530    2.2990 ca        1 MOL     -0.154103
      4 C4         -0.2540    4.1020    2.3860 ca        1 MOL     -0.035503
      5 C5          2.1410    4.2720    1.9560 ca        1 MOL      0.002997
      6 C6          2.0180    3.1160    1.2150 ca        1 MOL     -0.261703
      7 C7          0.2870   -2.0840   -0.4620 ca        1 MOL     -0.065003
      8 C8          0.1760   -0.9940    0.4010 ca        1 MOL     -0.118603
      9 C9          0.8080    2.4460    1.0440 ca        1 MOL      0.142497
     10 C10         0.6170   -3.5460    1.4370 ca        1 MOL      0.041697
     11 C11         0.5220   -3.3580    0.0560 ca        1 MOL      0.066597
     12 C12         0.9780    4.7670    2.5490 ca        1 MOL     -0.098503
     13 C13         3.0280    2.3580    0.4810 c         1 MOL      0.528597
     14 C14         2.3080    1.1700   -0.1460 c         1 MOL      0.608397
     15 C15         0.1670   -1.8850   -1.9210 c         1 MOL      0.918697
     16 C16         0.5540   -5.8390    1.0880 c3        1 MOL      0.091497
     17 C17         1.2150   -5.5520   -0.2460 c3        1 MOL      0.089397
     18 C18        -0.0700    0.3910   -0.1240 c3        1 MOL      0.143597
     19 N1          0.9860    1.3030    0.2430 n         1 MOL     -0.358903
     20 O1         -0.9980   -1.9690   -2.4590 o         1 MOL     -0.820203
     21 O2          4.2080    2.5810    0.3610 o         1 MOL     -0.476403
     22 O3          2.8810    0.3460   -0.8260 o         1 MOL     -0.516303
     23 O4          1.2310   -1.6350   -2.5960 o         1 MOL     -0.803503
     24 O5          0.8150   -4.7760    2.0080 os        1 MOL     -0.334103
     25 O6          0.6410   -4.3860   -0.8430 os        1 MOL     -0.281403
     26 Br1         1.0530    6.3490    3.5830 br        1 MOL     -0.113403
     27 H1          0.2170   -0.3320    2.4580 ha        1 MOL      0.115197
     28 H2         -1.3040    2.4300    1.5120 ha        1 MOL      0.171097
     29 H3          0.6040   -2.5870    3.3740 ha        1 MOL      0.128997
     30 H4         -1.1560    4.4950    2.8520 ha        1 MOL      0.142997
     31 H5          3.0980    4.7680    2.0690 ha        1 MOL      0.152897
     32 H6         -0.5320   -5.9550    0.9850 h1        1 MOL      0.049297
     33 H7          0.9570   -6.7600    1.5210 h1        1 MOL      0.057497
     34 H8          2.2950   -5.3940   -0.1360 h1        1 MOL      0.049897
     35 H9          1.0610   -6.3890   -0.9350 h1        1 MOL      0.069397
     36 H10        -0.1430    0.3820   -1.2170 h1        1 MOL      0.094497
     37 H11        -1.0110    0.7960    0.2610 h1        1 MOL      0.081097
@<TRIPOS>BOND
     1    1    3 ar  
     2    1    8 ar  
     3    2    4 ar  
     4    2    9 ar  
     5    3   10 ar  
     6    4   12 ar  
     7    5    6 ar  
     8    5   12 ar  
     9    6    9 ar  
    10    6   13 1   
    11    7    8 ar  
    12    7   11 ar  
    13    7   15 1   
    14    8   18 1   
    15    9   19 1   
    16   10   11 ar  
    17   10   24 1   
    18   11   25 1   
    19   12   26 1   
    20   13   14 1   
    21   13   21 2   
    22   14   19 1   
    23   14   22 2   
    24   15   20 1   
    25   15   23 1   
    26   16   17 1   
    27   16   24 1   
    28   17   25 1   
    29   18   19 1   
    30    1   27 1   
    31    2   28 1   
    32    3   29 1   
    33    4   30 1   
    34    5   31 1   
    35   16   32 1   
    36   16   33 1   
    37   17   34 1   
    38   17   35 1   
    39   18   36 1   
    40   18   37 1   
@<TRIPOS>SUBSTRUCTURE
     1 MOL         1 TEMP              0 ****  ****    0 ROOT
