@<TRIPOS>MOLECULE
AVX40812_0
   59    62     1     0     0
SMALL
No Charge or Current Charge


@<TRIPOS>ATOM
      1 C1          3.5970   -3.4840   -3.4760 ca        1 MOL     -0.157800
      2 C2          4.5820   -3.3670   -4.4550 ca        1 MOL     -0.116600
      3 C3          3.4360   -2.4940   -2.5000 ca        1 MOL     -0.073800
      4 C4         -2.2650    1.6460   -2.7310 ca        1 MOL     -0.143900
      5 C5          5.4350   -2.2600   -4.4900 ca        1 MOL     -0.151000
      6 C6         -2.4030    2.8520   -3.4230 ca        1 MOL     -0.141700
      7 C7          5.4320    0.5540   -2.2100 cc        1 MOL      0.008100
      8 C8          4.2840   -1.3690   -2.5150 ca        1 MOL     -0.078500
      9 C9         -3.1940    2.6470   -0.7160 ca        1 MOL     -0.068400
     10 C10        -2.6590    1.5440   -1.3850 ca        1 MOL     -0.073300
     11 C11         4.4030   -0.2060   -1.7040 cd        1 MOL     -0.116200
     12 C12         5.2620   -1.2780   -3.5080 ca        1 MOL      0.077200
     13 C13        -2.9350    3.9250   -2.7390 ca        1 MOL      0.033300
     14 C14        -3.3200    3.8260   -1.4210 ca        1 MOL      0.061700
     15 C15        -3.6140    2.5660    0.6930 c         1 MOL      0.922100
     16 C16         2.1830    0.6600   -0.8670 c         1 MOL      0.651400
     17 C17        -3.7030    5.8450   -2.0990 c3        1 MOL      0.319400
     18 C18        -1.1430   -3.0780   -2.0430 c3        1 MOL     -0.092300
     19 C19        -1.5340   -4.1010    0.2070 c3        1 MOL     -0.088400
     20 C20         3.5610    0.1410   -0.5050 c3        1 MOL     -0.086300
     21 C21        -2.4890    0.2190   -0.6810 c3        1 MOL     -0.029400
     22 C22        -0.9360   -1.6640    0.0720 c3        1 MOL     -0.067900
     23 C23        -0.1280    0.7810    0.0350 c3        1 MOL      0.080000
     24 C24        -1.6700   -2.8250   -0.6300 c3        1 MOL     -0.069500
     25 C25        -1.0240   -0.2830   -0.6240 c3        1 MOL     -0.086000
     26 N1          5.9440   -0.1010   -3.2980 na        1 MOL     -0.585000
     27 N2          1.2520    0.3900    0.1310 n         1 MOL     -0.556900
     28 O1         -4.8280    2.2270    0.9590 o         1 MOL     -0.812300
     29 O2         -2.7540    2.8370    1.6130 o         1 MOL     -0.824800
     30 O3          1.9350    1.2480   -1.9160 o         1 MOL     -0.598900
     31 O4         -3.1440    5.1710   -3.2450 os        1 MOL     -0.358900
     32 O5         -3.8180    4.9960   -0.9380 os        1 MOL     -0.314900
     33 H1          2.9460   -4.3540   -3.4700 ha        1 MOL      0.129200
     34 H2          4.6900   -4.1480   -5.2030 ha        1 MOL      0.121800
     35 H3          2.6630   -2.6000   -1.7440 ha        1 MOL      0.143200
     36 H4         -1.8500    0.7830   -3.2460 ha        1 MOL      0.116900
     37 H5          6.2020   -2.1700   -5.2510 ha        1 MOL      0.124700
     38 H6         -2.1020    2.9350   -4.4610 ha        1 MOL      0.129700
     39 H7          5.8450    1.5030   -1.8960 h4        1 MOL      0.165200
     40 H8         -3.0630    6.6980   -1.8470 h2        1 MOL      0.048400
     41 H9         -4.6990    6.2170   -2.3620 h2        1 MOL      0.048000
     42 H10        -0.0730   -3.3140   -2.0310 hc        1 MOL      0.024600
     43 H11        -1.6690   -3.9190   -2.5090 hc        1 MOL      0.020300
     44 H12        -1.2930   -2.2070   -2.6870 hc        1 MOL      0.056900
     45 H13        -0.4820   -4.3880    0.3110 hc        1 MOL      0.021500
     46 H14        -2.0610   -4.9360   -0.2670 hc        1 MOL      0.023600
     47 H15        -1.9490   -3.9640    1.2120 hc        1 MOL      0.030900
     48 H16         3.4490   -0.7450    0.1340 hc        1 MOL      0.056700
     49 H17         4.0730    0.8990    0.1010 hc        1 MOL      0.067500
     50 H18        -3.1140   -0.5150   -1.2080 hc        1 MOL      0.046800
     51 H19        -2.9040    0.2840    0.3340 hc        1 MOL      0.075700
     52 H20        -1.3210   -1.5730    1.0960 hc        1 MOL      0.042400
     53 H21         0.1200   -1.9440    0.1720 hc        1 MOL      0.020100
     54 H22        -0.1590    1.7150   -0.5380 h1        1 MOL      0.094300
     55 H23        -0.4710    1.0180    1.0470 h1        1 MOL      0.068200
     56 H24        -2.7400   -2.5940   -0.6950 hc        1 MOL      0.058400
     57 H25        -0.6700   -0.3980   -1.6570 hc        1 MOL      0.063200
     58 H26         6.7110    0.2320   -3.8660 hn        1 MOL      0.443200
     59 H27         1.5610   -0.1060    0.9650 hn        1 MOL      0.298100
@<TRIPOS>BOND
     1    1    2 ar  
     2    1    3 ar  
     3    2    5 ar  
     4    3    8 ar  
     5    4    6 ar  
     6    4   10 ar  
     7    5   12 ar  
     8    6   13 ar  
     9    7   11 2   
    10    7   26 1   
    11    8   11 1   
    12    8   12 ar  
    13    9   10 ar  
    14    9   14 ar  
    15    9   15 1   
    16   10   21 1   
    17   11   20 1   
    18   12   26 1   
    19   13   14 ar  
    20   13   31 1   
    21   14   32 1   
    22   15   28 1   
    23   15   29 1   
    24   16   20 1   
    25   16   27 1   
    26   16   30 2   
    27   17   31 1   
    28   17   32 1   
    29   18   24 1   
    30   19   24 1   
    31   21   25 1   
    32   22   24 1   
    33   22   25 1   
    34   23   25 1   
    35   23   27 1   
    36    1   33 1   
    37    2   34 1   
    38    3   35 1   
    39    4   36 1   
    40    5   37 1   
    41    6   38 1   
    42    7   39 1   
    43   17   40 1   
    44   17   41 1   
    45   18   42 1   
    46   18   43 1   
    47   18   44 1   
    48   19   45 1   
    49   19   46 1   
    50   19   47 1   
    51   20   48 1   
    52   20   49 1   
    53   21   50 1   
    54   21   51 1   
    55   22   52 1   
    56   22   53 1   
    57   23   54 1   
    58   23   55 1   
    59   24   56 1   
    60   25   57 1   
    61   26   58 1   
    62   27   59 1   
@<TRIPOS>SUBSTRUCTURE
     1 MOL         1 TEMP              0 ****  ****    0 ROOT
