@<TRIPOS>MOLECULE
AVX17715_0
   57    60     1     0     0
SMALL
No Charge or Current Charge


@<TRIPOS>ATOM
      1 C1         -0.0050    0.8630   -5.0900 ca        1 MOL     -0.110500
      2 C2         -0.6240    0.8520   -3.8400 ca        1 MOL     -0.110500
      3 C3          1.1770    0.1510   -5.2900 ca        1 MOL     -0.097000
      4 C4         -0.0600    0.1280   -2.7890 ca        1 MOL     -0.105800
      5 C5          3.0560   -5.8520   -1.4480 ca        1 MOL     -0.117900
      6 C6          6.4800   -1.1390   -2.1510 ca        1 MOL     -0.089400
      7 C7          5.9840   -3.2860   -3.1410 ca        1 MOL     -0.077100
      8 C8          2.9430   -7.2330   -1.6200 ca        1 MOL     -0.122600
      9 C9          6.9570   -1.7770   -1.0060 ca        1 MOL     -0.181400
     10 C10         6.4620   -3.9240   -1.9960 ca        1 MOL     -0.188300
     11 C11         1.7410   -0.5730   -4.2390 ca        1 MOL     -0.117700
     12 C12         0.7190   -5.7000   -0.7830 ca        1 MOL     -0.097200
     13 C13         5.9930   -1.8930   -3.2180 ca        1 MOL     -0.162600
     14 C14         1.1230   -0.5840   -2.9890 ca        1 MOL     -0.096900
     15 C15         1.9500   -5.0890   -1.0320 ca        1 MOL     -0.126900
     16 C16         1.7160   -7.8120   -1.3670 ca        1 MOL      0.068900
     17 C17         0.6340   -7.0660   -0.9600 ca        1 MOL      0.088400
     18 C18         6.9480   -3.1690   -0.9280 ca        1 MOL      0.133600
     19 C19         2.9770   -1.3070   -4.4750 c         1 MOL      0.659200
     20 C20        -0.4530   -4.9250   -0.3460 c         1 MOL      0.915600
     21 C21         0.0280   -9.1380   -1.0970 c3        1 MOL      0.316800
     22 C22         7.3770   -5.2180    0.2010 c3        1 MOL      0.111300
     23 C23         5.4800   -1.2070   -4.4510 c3        1 MOL      0.138600
     24 C24         1.7080   -1.3530   -1.8420 c3        1 MOL      0.169500
     25 C25         2.1210   -3.6140   -0.8630 c3        1 MOL      0.182800
     26 N1          4.1750   -0.6230   -4.2410 n         1 MOL     -0.559500
     27 N2          1.5020   -2.8210   -1.9590 n4        1 MOL     -0.874600
     28 O1         -0.6500   -4.7570    0.9160 o         1 MOL     -0.661100
     29 O2          2.9430   -2.4800   -4.8850 o         1 MOL     -0.616400
     30 O3         -1.2440   -4.4390   -1.2390 o         1 MOL     -0.781000
     31 O4          1.4190   -9.1350   -1.4790 os        1 MOL     -0.335600
     32 O5         -0.4760   -7.8280   -0.7660 os        1 MOL     -0.306100
     33 O6          7.4150   -3.7920    0.1880 os        1 MOL     -0.324500
     34 H1         -0.4440    1.4270   -5.9090 ha        1 MOL      0.145400
     35 H2         -1.5440    1.4070   -3.6850 ha        1 MOL      0.144300
     36 H3          1.6500    0.1690   -6.2690 ha        1 MOL      0.147900
     37 H4         -0.5500    0.1260   -1.8190 ha        1 MOL      0.145200
     38 H5          4.0110   -5.3690   -1.6400 ha        1 MOL      0.133700
     39 H6          6.4900   -0.0530   -2.2020 ha        1 MOL      0.136900
     40 H7          5.6070   -3.8820   -3.9680 ha        1 MOL      0.145000
     41 H8          3.7930   -7.8250   -1.9400 ha        1 MOL      0.155900
     42 H9          7.3350   -1.1830   -0.1770 ha        1 MOL      0.147600
     43 H10         6.4520   -5.0090   -1.9420 ha        1 MOL      0.147500
     44 H11        -0.5630   -9.5420   -1.9270 h2        1 MOL      0.075600
     45 H12        -0.0950   -9.7920   -0.2260 h2        1 MOL      0.075400
     46 H13         7.7780   -5.5860    1.1480 h1        1 MOL      0.069800
     47 H14         7.9680   -5.6060   -0.6330 h1        1 MOL      0.035100
     48 H15         6.3400   -5.5470    0.0940 h1        1 MOL      0.037000
     49 H16         6.1620   -0.4060   -4.7590 h1        1 MOL      0.074800
     50 H17         5.4020   -1.9080   -5.2880 h1        1 MOL      0.059800
     51 H18         2.7890   -1.1920   -1.7670 hx        1 MOL      0.096500
     52 H19         1.2590   -1.0480   -0.8900 hx        1 MOL      0.083600
     53 H20         1.6650   -3.2620    0.0710 hx        1 MOL      0.095400
     54 H21         3.1820   -3.3330   -0.8370 hx        1 MOL      0.068600
     55 H22         4.1440    0.3530   -3.9670 hn        1 MOL      0.331700
     56 H23         0.4930   -3.0190   -1.9880 hn        1 MOL      0.488800
     57 H24         1.8780   -3.1440   -2.8610 hn        1 MOL      0.434400
@<TRIPOS>BOND
     1    1    2 ar  
     2    1    3 ar  
     3    2    4 ar  
     4    3   11 ar  
     5    4   14 ar  
     6    5    8 ar  
     7    5   15 ar  
     8    6    9 ar  
     9    6   13 ar  
    10    7   10 ar  
    11    7   13 ar  
    12    8   16 ar  
    13    9   18 ar  
    14   10   18 ar  
    15   11   14 ar  
    16   11   19 1   
    17   12   15 ar  
    18   12   17 ar  
    19   12   20 1   
    20   13   23 1   
    21   14   24 1   
    22   15   25 1   
    23   16   17 ar  
    24   16   31 1   
    25   17   32 1   
    26   18   33 1   
    27   19   26 1   
    28   19   29 2   
    29   20   28 1   
    30   20   30 1   
    31   21   31 1   
    32   21   32 1   
    33   22   33 1   
    34   23   26 1   
    35   24   27 1   
    36   25   27 1   
    37    1   34 1   
    38    2   35 1   
    39    3   36 1   
    40    4   37 1   
    41    5   38 1   
    42    6   39 1   
    43    7   40 1   
    44    8   41 1   
    45    9   42 1   
    46   10   43 1   
    47   21   44 1   
    48   21   45 1   
    49   22   46 1   
    50   22   47 1   
    51   22   48 1   
    52   23   49 1   
    53   23   50 1   
    54   24   51 1   
    55   24   52 1   
    56   25   53 1   
    57   25   54 1   
    58   26   55 1   
    59   27   56 1   
    60   27   57 1   
@<TRIPOS>SUBSTRUCTURE
     1 MOL         1 TEMP              0 ****  ****    0 ROOT
