@<TRIPOS>MOLECULE
AVX38741_1
   65    69     1     0     0
SMALL
No Charge or Current Charge


@<TRIPOS>ATOM
      1 C1          4.0920    0.8180   -4.4390 ca        1 MOL     -0.117303
      2 C2         -0.9130    0.8770    2.8540 ca        1 MOL     -0.127703
      3 C3         -1.8110    1.5850    2.0580 ca        1 MOL     -0.109403
      4 C4          3.0580   -0.0370   -4.8180 ca        1 MOL     -0.114303
      5 C5          4.5680    0.8000   -3.1280 ca        1 MOL     -0.133903
      6 C6          0.1510    0.1930    2.2690 ca        1 MOL     -0.079603
      7 C7         -1.6450    1.6170    0.6720 ca        1 MOL     -0.117803
      8 C8          2.4980   -0.9100   -3.8850 ca        1 MOL     -0.109303
      9 C9          4.0080   -0.0730   -2.1950 ca        1 MOL     -0.115103
     10 C10        -2.6690   -2.7500   -3.4890 ca        1 MOL     -0.129403
     11 C11        -2.8150   -3.6420   -4.5520 ca        1 MOL     -0.140803
     12 C12         0.3120    0.2120    0.8780 ca        1 MOL     -0.130103
     13 C13        -1.9020   -1.0420   -5.0180 ca        1 MOL     -0.102403
     14 C14        -0.5790    0.9390    0.0660 ca        1 MOL     -0.090303
     15 C15         2.9740   -0.9280   -2.5740 ca        1 MOL     -0.141603
     16 C16        -2.2090   -1.4540   -3.7210 ca        1 MOL     -0.169303
     17 C17        -2.4950   -3.2350   -5.8480 ca        1 MOL      0.097497
     18 C18        -2.0600   -1.9290   -6.0830 ca        1 MOL      0.080497
     19 C19         1.4690   -0.5190    0.3000 c         1 MOL      0.708897
     20 C20        -1.4230    0.3340   -5.2610 c         1 MOL      0.915697
     21 C21        -2.4260   -7.1570   -9.9810 c         1 MOL      0.911297
     22 C22        -0.4030    1.0010   -1.4260 c3        1 MOL      0.165897
     23 C23        -2.2830   -2.3110   -8.3630 c3        1 MOL      0.087897
     24 C24        -0.0810   -1.5200   -1.4070 c3        1 MOL      0.300897
     25 C25        -1.9650   -3.7670   -8.0500 c3        1 MOL      0.101397
     26 C26         2.3720   -1.8680   -1.5690 c3        1 MOL      0.136497
     27 C27        -2.0550   -0.5230   -2.5540 c3        1 MOL      0.193097
     28 C28        -2.0430   -6.1310   -8.9070 c3        1 MOL     -0.201803
     29 C29        -2.4330   -4.6890   -9.1660 c3        1 MOL     -0.053703
     30 N1          1.2500   -1.2660   -0.8640 n         1 MOL     -0.472603
     31 N2         -0.6200   -0.3170   -2.1490 n4        1 MOL     -0.791503
     32 O1         -2.2900    1.2520   -5.5040 o         1 MOL     -0.700603
     33 O2         -2.0990   -8.3540   -9.7570 o         1 MOL     -0.843803
     34 O3          2.5530   -0.4090    0.8720 o         1 MOL     -0.614603
     35 O4         -0.1590    0.5610   -5.2200 o         1 MOL     -0.809903
     36 O5         -3.0450   -6.6660  -10.9690 o         1 MOL     -0.850103
     37 O6         -1.7630   -1.4600   -7.3360 os        1 MOL     -0.301203
     38 O7         -2.6390   -4.1620   -6.8460 os        1 MOL     -0.295003
     39 H1          4.5290    1.4970   -5.1660 ha        1 MOL      0.131797
     40 H2         -1.0430    0.8570    3.9320 ha        1 MOL      0.141597
     41 H3         -2.6400    2.1160    2.5170 ha        1 MOL      0.140597
     42 H4          2.6880   -0.0240   -5.8390 ha        1 MOL      0.146297
     43 H5          5.3740    1.4650   -2.8330 ha        1 MOL      0.135697
     44 H6          0.8390   -0.3580    2.9050 ha        1 MOL      0.157697
     45 H7         -2.3530    2.1800    0.0700 ha        1 MOL      0.147197
     46 H8          1.6920   -1.5730   -4.1890 ha        1 MOL      0.143397
     47 H9          4.3850   -0.0810   -1.1760 ha        1 MOL      0.139697
     48 H10        -2.9140   -3.0780   -2.4820 ha        1 MOL      0.117197
     49 H11        -3.1630   -4.6530   -4.3600 ha        1 MOL      0.158797
     50 H12        -1.0680    1.7390   -1.8890 hx        1 MOL      0.097697
     51 H13         0.6190    1.3210   -1.6650 hx        1 MOL      0.103697
     52 H14        -1.8170   -2.0070   -9.3060 h1        1 MOL      0.089097
     53 H15        -3.3630   -2.1360   -8.4440 h1        1 MOL      0.057797
     54 H16        -0.0530   -2.3560   -2.1140 hx        1 MOL      0.113197
     55 H17        -0.7780   -1.7570   -0.5950 hx        1 MOL      0.076197
     56 H18        -0.8860   -3.9050   -7.8940 h1        1 MOL      0.072897
     57 H19         2.0120   -2.7790   -2.0600 h1        1 MOL      0.070297
     58 H20         3.1120   -2.1720   -0.8220 h1        1 MOL      0.079597
     59 H21        -2.4630    0.4670   -2.7810 hx        1 MOL      0.105497
     60 H22        -2.5790   -0.9060   -1.6720 hx        1 MOL      0.055397
     61 H23        -0.9500   -6.1710   -8.8240 hc        1 MOL      0.024697
     62 H24        -2.4500   -6.4650   -7.9450 hc        1 MOL      0.030297
     63 H25        -3.5100   -4.5730   -9.2740 hc        1 MOL      0.070797
     64 H26        -1.9660   -4.3400  -10.0870 hc        1 MOL      0.041797
     65 H27        -0.0830   -0.2520   -3.0240 hn        1 MOL      0.514697
@<TRIPOS>BOND
     1    1    4 ar  
     2    1    5 ar  
     3    2    3 ar  
     4    2    6 ar  
     5    3    7 ar  
     6    4    8 ar  
     7    5    9 ar  
     8    6   12 ar  
     9    7   14 ar  
    10    8   15 ar  
    11    9   15 ar  
    12   10   11 ar  
    13   10   16 ar  
    14   11   17 ar  
    15   12   14 ar  
    16   12   19 1   
    17   13   16 ar  
    18   13   18 ar  
    19   13   20 1   
    20   14   22 1   
    21   15   26 1   
    22   16   27 1   
    23   17   18 ar  
    24   17   38 1   
    25   18   37 1   
    26   19   30 1   
    27   19   34 2   
    28   20   32 1   
    29   20   35 1   
    30   21   28 1   
    31   21   33 1   
    32   21   36 1   
    33   22   31 1   
    34   23   25 1   
    35   23   37 1   
    36   24   30 1   
    37   24   31 1   
    38   25   29 1   
    39   25   38 1   
    40   26   30 1   
    41   27   31 1   
    42   28   29 1   
    43    1   39 1   
    44    2   40 1   
    45    3   41 1   
    46    4   42 1   
    47    5   43 1   
    48    6   44 1   
    49    7   45 1   
    50    8   46 1   
    51    9   47 1   
    52   10   48 1   
    53   11   49 1   
    54   22   50 1   
    55   22   51 1   
    56   23   52 1   
    57   23   53 1   
    58   24   54 1   
    59   24   55 1   
    60   25   56 1   
    61   26   57 1   
    62   26   58 1   
    63   27   59 1   
    64   27   60 1   
    65   28   61 1   
    66   28   62 1   
    67   29   63 1   
    68   29   64 1   
    69   31   65 1   
@<TRIPOS>SUBSTRUCTURE
     1 MOL         1 TEMP              0 ****  ****    0 ROOT
