@<TRIPOS>MOLECULE
AVX-17379_0
   32    33     1     0     0
SMALL
No Charge or Current Charge


@<TRIPOS>ATOM
      1 C1          1.8850   -1.0360   -0.1120 ca        1 MOL     -0.118597
      2 C2          0.8070   -0.4630    0.5610 ca        1 MOL     -0.068197
      3 C3          2.9210   -1.6310    0.6080 ca        1 MOL     -0.093897
      4 C4          0.7640   -0.4840    1.9550 ca        1 MOL     -0.122197
      5 C5          1.1170   -1.4220    6.1260 cc        1 MOL     -0.271597
      6 C6          2.8780   -1.6520    2.0020 ca        1 MOL     -0.179497
      7 C7          1.8000   -1.0790    2.6760 ca        1 MOL      0.058503
      8 C8          2.3220   -0.6990    6.0370 cc        1 MOL      0.339003
      9 C9          0.7620   -1.6600    4.8210 cd        1 MOL     -0.059397
     10 C10        -0.4030   -2.3700    4.2580 c3        1 MOL     -0.047897
     11 C11         4.0040   -2.2970    2.7450 c3        1 MOL      0.177203
     12 C12         3.1420   -0.1830    7.1460 c3        1 MOL      0.101303
     13 N1          2.7060   -0.4920    4.7750 nd        1 MOL     -0.556297
     14 N2          1.7380   -1.0880    4.0590 na        1 MOL      0.096403
     15 N3          5.1060   -1.3540    3.0750 n4        1 MOL     -0.842997
     16 O1          4.3080   -0.9910    7.3120 oh        1 MOL     -0.597197
     17 H1          1.9180   -1.0200   -1.1980 ha        1 MOL      0.163803
     18 H2          0.0000    0.0000   -0.0000 ha        1 MOL      0.170203
     19 H3          3.7570   -2.0740    0.0740 ha        1 MOL      0.146303
     20 H4         -0.0840   -0.0320    2.4650 ha        1 MOL      0.170003
     21 H5          0.5800   -1.7280    7.0130 ha        1 MOL      0.189103
     22 H6         -1.2460   -1.6790    4.0890 hc        1 MOL      0.064103
     23 H7         -0.1680   -2.8520    3.2940 hc        1 MOL      0.056603
     24 H8         -0.7580   -3.1750    4.9230 hc        1 MOL      0.080703
     25 H9          3.6650   -2.7230    3.6970 hx        1 MOL      0.116203
     26 H10         4.4550   -3.1100    2.1620 hx        1 MOL      0.118003
     27 H11         3.4740    0.8570    6.9730 h1        1 MOL      0.053303
     28 H12         2.5910   -0.1800    8.1040 h1        1 MOL      0.053703
     29 H13         5.5460   -1.6070    3.9650 hn        1 MOL      0.455603
     30 H14         4.7520   -0.3960    3.1550 hn        1 MOL      0.464603
     31 H15         5.8270   -1.3680    2.3470 hn        1 MOL      0.464303
     32 H16         4.8040   -0.6060    8.0500 ho        1 MOL      0.418803
@<TRIPOS>BOND
     1    1    2 ar  
     2    1    3 ar  
     3    2    4 ar  
     4    3    6 ar  
     5    4    7 ar  
     6    5    8 ar  
     7    5    9 ar  
     8    6    7 ar  
     9    6   11 1   
    10    7   14 1   
    11    8   12 1   
    12    8   13 ar  
    13    9   10 1   
    14    9   14 ar  
    15   11   15 1   
    16   12   16 1   
    17   13   14 ar  
    18    1   17 1   
    19    2   18 1   
    20    3   19 1   
    21    4   20 1   
    22    5   21 1   
    23   10   22 1   
    24   10   23 1   
    25   10   24 1   
    26   11   25 1   
    27   11   26 1   
    28   12   27 1   
    29   12   28 1   
    30   15   29 1   
    31   15   30 1   
    32   15   31 1   
    33   16   32 1   
@<TRIPOS>SUBSTRUCTURE
     1 MOL         1 TEMP              0 ****  ****    0 ROOT
