@<TRIPOS>MOLECULE
GL5243-106_0
   54    56     1     0     0
SMALL
No Charge or Current Charge


@<TRIPOS>ATOM
      1 C1          1.1250    3.8790   -3.5960 ca        1 MOL     -0.045598
      2 C2          0.1760    4.7350   -1.5460 ca        1 MOL     -0.065498
      3 C3         -2.5070    0.9000   -3.0950 ca        1 MOL     -0.149998
      4 C4          1.0300    5.1470   -4.1700 ca        1 MOL     -0.201998
      5 C5          0.0810    6.0030   -2.1190 ca        1 MOL     -0.199798
      6 C6         -2.7290    1.8220   -4.1200 ca        1 MOL     -0.143598
      7 C7          0.6980    3.6730   -2.2850 ca        1 MOL     -0.168398
      8 C8         -3.2080    2.5260   -1.4240 ca        1 MOL     -0.073198
      9 C9         -2.7450    1.2500   -1.7540 ca        1 MOL     -0.071898
     10 C10         0.5070    6.2090   -3.4310 ca        1 MOL      0.135902
     11 C11        -3.1870    3.0750   -3.7680 ca        1 MOL      0.032402
     12 C12        -3.4200    3.4180   -2.4550 ca        1 MOL      0.061602
     13 C13         0.7990    2.3220   -1.6740 c         1 MOL      0.666602
     14 C14        -3.4660    2.9170   -0.0280 c         1 MOL      0.922602
     15 C15        -3.8890    5.1210   -3.7050 c3        1 MOL      0.318702
     16 C16        -1.1430   -3.0780   -2.0430 c3        1 MOL     -0.089898
     17 C17        -1.5340   -4.1010    0.2070 c3        1 MOL     -0.088398
     18 C18        -2.4890    0.2190   -0.6810 c3        1 MOL     -0.033398
     19 C19        -0.9360   -1.6640    0.0720 c3        1 MOL     -0.068298
     20 C20        -0.1280    0.7810    0.0350 c3        1 MOL      0.085702
     21 C21        -1.6700   -2.8250   -0.6300 c3        1 MOL     -0.069798
     22 C22        -1.0240   -0.2830   -0.6240 c3        1 MOL     -0.083198
     23 N1          0.4110    7.4910   -4.0110 nh        1 MOL     -0.813598
     24 N2         -0.1150    2.0350   -0.6670 n         1 MOL     -0.551498
     25 O1         -4.6400    2.7200    0.4640 o         1 MOL     -0.806698
     26 O2          1.6750    1.5530   -2.0620 o         1 MOL     -0.621898
     27 O3         -2.5100    3.4430    0.6550 o         1 MOL     -0.826498
     28 O4         -3.4590    4.0960   -4.6250 os        1 MOL     -0.357198
     29 O5         -3.8670    4.6970   -2.3260 os        1 MOL     -0.314098
     30 H1          1.5330    3.0590   -4.1810 ha        1 MOL      0.154602
     31 H2         -0.1600    4.5850   -0.5230 ha        1 MOL      0.148402
     32 H3         -2.1470   -0.0950   -3.3440 ha        1 MOL      0.117002
     33 H4          1.3650    5.2970   -5.1930 ha        1 MOL      0.126702
     34 H5         -0.3280    6.8230   -1.5350 ha        1 MOL      0.129702
     35 H6         -2.5470    1.5560   -5.1550 ha        1 MOL      0.130402
     36 H7         -3.2300    5.9900   -3.8150 h2        1 MOL      0.049702
     37 H8         -4.9110    5.4190   -3.9640 h2        1 MOL      0.049602
     38 H9         -0.0730   -3.3140   -2.0310 hc        1 MOL      0.026302
     39 H10        -1.6690   -3.9190   -2.5090 hc        1 MOL      0.019902
     40 H11        -1.2930   -2.2070   -2.6870 hc        1 MOL      0.048702
     41 H12        -0.4820   -4.3880    0.3110 hc        1 MOL      0.024702
     42 H13        -2.0610   -4.9360   -0.2670 hc        1 MOL      0.022602
     43 H14        -1.9490   -3.9640    1.2120 hc        1 MOL      0.032002
     44 H15        -3.1650   -0.6260   -0.8710 hc        1 MOL      0.041502
     45 H16        -2.7880    0.6210    0.2960 hc        1 MOL      0.084602
     46 H17        -1.3210   -1.5730    1.0960 hc        1 MOL      0.044902
     47 H18         0.1200   -1.9440    0.1720 hc        1 MOL      0.029602
     48 H19        -0.4690    0.9880    1.0560 h1        1 MOL      0.088402
     49 H20         0.9080    0.4380    0.1100 h1        1 MOL      0.062102
     50 H21        -2.7400   -2.5940   -0.6950 hc        1 MOL      0.055802
     51 H22        -0.6700   -0.3980   -1.6570 hc        1 MOL      0.054502
     52 H23         0.7640    7.6360   -4.9350 hn        1 MOL      0.378902
     53 H24         0.0790    8.2540   -3.4550 hn        1 MOL      0.380402
     54 H25        -0.7700    2.7520   -0.3600 hn        1 MOL      0.319902
@<TRIPOS>BOND
     1    1    4 ar  
     2    1    7 ar  
     3    2    5 ar  
     4    2    7 ar  
     5    3    6 ar  
     6    3    9 ar  
     7    4   10 ar  
     8    5   10 ar  
     9    6   11 ar  
    10    7   13 1   
    11    8    9 ar  
    12    8   12 ar  
    13    8   14 1   
    14    9   18 1   
    15   10   23 1   
    16   11   12 ar  
    17   11   28 1   
    18   12   29 1   
    19   13   24 1   
    20   13   26 2   
    21   14   25 1   
    22   14   27 1   
    23   15   28 1   
    24   15   29 1   
    25   16   21 1   
    26   17   21 1   
    27   18   22 1   
    28   19   21 1   
    29   19   22 1   
    30   20   22 1   
    31   20   24 1   
    32    1   30 1   
    33    2   31 1   
    34    3   32 1   
    35    4   33 1   
    36    5   34 1   
    37    6   35 1   
    38   15   36 1   
    39   15   37 1   
    40   16   38 1   
    41   16   39 1   
    42   16   40 1   
    43   17   41 1   
    44   17   42 1   
    45   17   43 1   
    46   18   44 1   
    47   18   45 1   
    48   19   46 1   
    49   19   47 1   
    50   20   48 1   
    51   20   49 1   
    52   21   50 1   
    53   22   51 1   
    54   23   52 1   
    55   23   53 1   
    56   24   54 1   
@<TRIPOS>SUBSTRUCTURE
     1 MOL         1 TEMP              0 ****  ****    0 ROOT
