@<TRIPOS>MOLECULE
AVX-17557_3
   59    62     1     0     0
SMALL
No Charge or Current Charge


@<TRIPOS>ATOM
      1 C1          0.8230    2.4970    0.7610 ca        1 MOL     -0.147103
      2 C2         -0.4670    2.5710    0.2130 ca        1 MOL     -0.130203
      3 C3          1.5390    1.3000    0.7340 ca        1 MOL     -0.137003
      4 C4         -1.0590    1.4490   -0.3710 ca        1 MOL     -0.095503
      5 C5         -2.4800   -3.8560   -1.4740 ca        1 MOL     -0.149803
      6 C6         -2.8340   -4.8740   -2.3630 ca        1 MOL     -0.152203
      7 C7         -3.0750   -2.1580   -3.1150 ca        1 MOL     -0.067503
      8 C8          0.9390    0.1890    0.1650 ca        1 MOL     -0.110003
      9 C9         -0.3500    0.2580   -0.3850 ca        1 MOL     -0.072103
     10 C10        -2.5990   -2.5060   -1.8480 ca        1 MOL     -0.084703
     11 C11        -3.3000   -4.5040   -3.6080 ca        1 MOL      0.043097
     12 C12        -3.4170   -3.1820   -3.9730 ca        1 MOL      0.067997
     13 C13        -3.2100   -0.7520   -3.5300 c         1 MOL      0.918897
     14 C14         0.1170   -3.7720    1.5110 c         1 MOL      0.653597
     15 C15         1.5230   -1.1830   -0.0010 c3        1 MOL     -0.053403
     16 C16        -4.0660   -4.4150   -5.6290 c3        1 MOL      0.317797
     17 C17        -0.7360   -1.0680   -0.9830 c3        1 MOL     -0.035303
     18 C18         0.2560   -2.0220   -0.2630 c3        1 MOL      0.103497
     19 C19        -2.2050   -1.4450   -0.8550 c3        1 MOL     -0.019303
     20 C20        -0.6070   -4.0690    2.8140 c3        1 MOL     -0.164003
     21 C21        -0.2270   -5.4100    3.4380 c3        1 MOL     -0.070803
     22 C22        -0.9700   -5.6740    4.7530 c3        1 MOL     -0.096903
     23 C23        -0.5480   -7.0130    5.3650 c3        1 MOL     -0.116803
     24 C24        -1.2490   -7.3250    6.6820 c3        1 MOL      0.106597
     25 N1         -0.2620   -2.5450    0.9850 n         1 MOL     -0.547403
     26 N2         -2.7170   -7.3950    6.4910 n4        1 MOL     -0.841803
     27 O1         -4.3230   -0.1440   -3.3040 o         1 MOL     -0.808603
     28 O2         -2.2120   -0.1770   -4.1050 o         1 MOL     -0.809303
     29 O3          0.9190   -4.5460    0.9960 o         1 MOL     -0.624203
     30 O4         -3.6910   -5.3510   -4.5980 os        1 MOL     -0.356303
     31 O5         -3.8960   -3.0360   -5.2390 os        1 MOL     -0.307903
     32 H1          1.2690    3.3830    1.2060 ha        1 MOL      0.119397
     33 H2         -1.0070    3.5140    0.2370 ha        1 MOL      0.131997
     34 H3          2.5390    1.2460    1.1490 ha        1 MOL      0.115197
     35 H4         -2.0500    1.5210   -0.8060 ha        1 MOL      0.171097
     36 H5         -2.1090   -4.1180   -0.4860 ha        1 MOL      0.104597
     37 H6         -2.7430   -5.9160   -2.0790 ha        1 MOL      0.123897
     38 H7          2.1850   -1.1910   -0.8740 hc        1 MOL      0.071697
     39 H8          2.0710   -1.5090    0.8880 hc        1 MOL      0.037297
     40 H9         -3.4530   -4.6060   -6.5170 h2        1 MOL      0.057297
     41 H10        -5.1190   -4.5790   -5.8860 h2        1 MOL      0.056997
     42 H11        -0.4710   -1.0320   -2.0490 hc        1 MOL      0.128897
     43 H12         0.4800   -2.8980   -0.8810 h1        1 MOL      0.095897
     44 H13        -2.8280   -0.5540   -0.9970 hc        1 MOL      0.101897
     45 H14        -2.4080   -1.7970    0.1640 hc        1 MOL      0.013197
     46 H15        -0.4260   -3.2540    3.5250 hc        1 MOL      0.064997
     47 H16        -1.6810   -4.0760    2.5870 hc        1 MOL      0.075497
     48 H17        -0.4740   -6.2070    2.7260 hc        1 MOL      0.058497
     49 H18         0.8560   -5.4580    3.6060 hc        1 MOL      0.066297
     50 H19        -2.0510   -5.6820    4.5650 hc        1 MOL      0.032897
     51 H20        -0.7700   -4.8610    5.4580 hc        1 MOL      0.065997
     52 H21        -0.7800   -7.8190    4.6580 hc        1 MOL      0.073297
     53 H22         0.5390   -7.0260    5.5110 hc        1 MOL      0.103997
     54 H23        -0.9330   -8.2850    7.1010 hx        1 MOL      0.103797
     55 H24        -1.0680   -6.5330    7.4150 hx        1 MOL      0.113197
     56 H25        -0.9360   -1.9860    1.5000 hn        1 MOL      0.312497
     57 H26        -2.9560   -7.4540    5.4950 hn        1 MOL      0.464997
     58 H27        -3.1780   -6.5640    6.8770 hn        1 MOL      0.465397
     59 H28        -3.1100   -8.2190    6.9590 hn        1 MOL      0.455997
@<TRIPOS>BOND
     1    1    2 ar  
     2    1    3 ar  
     3    2    4 ar  
     4    3    8 ar  
     5    4    9 ar  
     6    5    6 ar  
     7    5   10 ar  
     8    6   11 ar  
     9    7   10 ar  
    10    7   12 ar  
    11    7   13 1   
    12    8    9 ar  
    13    8   15 1   
    14    9   17 1   
    15   10   19 1   
    16   11   12 ar  
    17   11   30 1   
    18   12   31 1   
    19   13   27 1   
    20   13   28 1   
    21   14   20 1   
    22   14   25 1   
    23   14   29 2   
    24   15   18 1   
    25   16   30 1   
    26   16   31 1   
    27   17   18 1   
    28   17   19 1   
    29   18   25 1   
    30   20   21 1   
    31   21   22 1   
    32   22   23 1   
    33   23   24 1   
    34   24   26 1   
    35    1   32 1   
    36    2   33 1   
    37    3   34 1   
    38    4   35 1   
    39    5   36 1   
    40    6   37 1   
    41   15   38 1   
    42   15   39 1   
    43   16   40 1   
    44   16   41 1   
    45   17   42 1   
    46   18   43 1   
    47   19   44 1   
    48   19   45 1   
    49   20   46 1   
    50   20   47 1   
    51   21   48 1   
    52   21   49 1   
    53   22   50 1   
    54   22   51 1   
    55   23   52 1   
    56   23   53 1   
    57   24   54 1   
    58   24   55 1   
    59   25   56 1   
    60   26   57 1   
    61   26   58 1   
    62   26   59 1   
@<TRIPOS>SUBSTRUCTURE
     1 MOL         1 TEMP              0 ****  ****    0 ROOT
