@<TRIPOS>MOLECULE
AVX101118_1
   65    68     1     0     0
SMALL
No Charge or Current Charge


@<TRIPOS>ATOM
      1 C1          8.4350   -4.1840    0.7960 ca        1 MOL     -0.103603
      2 C2          8.0020   -3.9060    2.0930 ca        1 MOL     -0.105003
      3 C3          7.6170   -3.8790   -0.2920 ca        1 MOL     -0.096003
      4 C4          6.7520   -3.3240    2.3010 ca        1 MOL     -0.102503
      5 C5          6.8210    1.2890    0.8890 ca        1 MOL     -0.122303
      6 C6          7.2650    2.5170    0.3980 ca        1 MOL     -0.141603
      7 C7          6.3670   -3.2960   -0.0840 ca        1 MOL     -0.104603
      8 C8          4.9970    2.3950    2.0270 ca        1 MOL     -0.076103
      9 C9          5.9340   -3.0190    1.2130 ca        1 MOL     -0.105403
     10 C10         5.6850    1.2280    1.6980 ca        1 MOL     -0.165003
     11 C11         6.5690    3.6840    0.7160 ca        1 MOL      0.072197
     12 C12         5.4480    3.6260    1.5480 ca        1 MOL      0.076997
     13 C13         5.5170   -2.9820   -1.2610 c         1 MOL      0.653697
     14 C14         3.8000    2.3270    2.8910 c         1 MOL      0.913797
     15 C15         3.8360    2.4160   -3.5420 c3        1 MOL     -0.077603
     16 C16         4.6600    2.0010   -2.3260 c3        1 MOL     -0.076703
     17 C17         2.9240    1.2880   -4.0120 c3        1 MOL     -0.076503
     18 C18         5.4460    0.7190   -2.5900 c3        1 MOL     -0.073703
     19 C19         3.7070    0.0040   -4.2780 c3        1 MOL     -0.073603
     20 C20         6.0800    5.9110    0.2840 c3        1 MOL      0.087597
     21 C21         5.4730    5.9430    1.6730 c3        1 MOL      0.085597
     22 C22         4.5310   -0.4210   -3.0550 c3        1 MOL     -0.089803
     23 C23         3.1610   -0.4550    0.8580 c3        1 MOL      0.090697
     24 C24         4.6000   -2.3960    1.4650 c3        1 MOL      0.161497
     25 C25         5.2310   -0.1100    2.2030 c3        1 MOL      0.179897
     26 C26         5.3460   -1.6760   -3.3630 c3        1 MOL      0.087697
     27 N1          6.0490   -2.0920   -2.1970 n         1 MOL     -0.553403
     28 N2          4.5580   -0.9440    1.1420 n4        1 MOL     -0.711603
     29 O1          2.6510    2.1720    2.3380 o         1 MOL     -0.742103
     30 O2          4.4020   -3.4900   -1.3480 o         1 MOL     -0.606703
     31 O3          3.9550    2.4260    4.1630 o         1 MOL     -0.848103
     32 O4          7.0420    4.8570    0.1870 os        1 MOL     -0.319603
     33 O5          4.7420    4.7390    1.9220 os        1 MOL     -0.280103
     34 H1          9.4080   -4.6370    0.6330 ha        1 MOL      0.144897
     35 H2          8.6390   -4.1450    2.9400 ha        1 MOL      0.146697
     36 H3          7.9650   -4.1010   -1.2980 ha        1 MOL      0.150097
     37 H4          6.4250   -3.1120    3.3160 ha        1 MOL      0.148897
     38 H5          7.3650    0.3840    0.6320 ha        1 MOL      0.123197
     39 H6          8.1450    2.5550   -0.2380 ha        1 MOL      0.149597
     40 H7          3.2340    3.2980   -3.2950 hc        1 MOL      0.041997
     41 H8          4.5100    2.7050   -4.3580 hc        1 MOL      0.040397
     42 H9          5.3510    2.8090   -2.0580 hc        1 MOL      0.042397
     43 H10         3.9950    1.8510   -1.4680 hc        1 MOL      0.039697
     44 H11         2.1570    1.0960   -3.2510 hc        1 MOL      0.040097
     45 H12         2.3990    1.5950   -4.9240 hc        1 MOL      0.042797
     46 H13         6.2130    0.9160   -3.3500 hc        1 MOL      0.042297
     47 H14         5.9760    0.4250   -1.6760 hc        1 MOL      0.036197
     48 H15         3.0090   -0.7950   -4.5560 hc        1 MOL      0.042497
     49 H16         4.3700    0.1590   -5.1390 hc        1 MOL      0.041997
     50 H17         5.3150    5.7600   -0.4880 h1        1 MOL      0.062597
     51 H18         6.5970    6.8530    0.0740 h1        1 MOL      0.079797
     52 H19         6.2430    6.0510    2.4470 h1        1 MOL      0.056797
     53 H20         4.7760    6.7810    1.7640 h1        1 MOL      0.088197
     54 H21         3.8370   -0.6620   -2.2390 hc        1 MOL      0.055997
     55 H22         2.5670   -0.5960    1.7620 hx        1 MOL      0.067997
     56 H23         3.2250    0.6020    0.5900 hx        1 MOL      0.111097
     57 H24         2.7620   -1.0460    0.0300 hx        1 MOL      0.085097
     58 H25         3.8150   -2.8700    0.8630 hx        1 MOL      0.100597
     59 H26         4.3060   -2.4880    2.5190 hx        1 MOL      0.093097
     60 H27         6.0740   -0.6990    2.5790 hx        1 MOL      0.117797
     61 H28         4.5100    0.0000    3.0210 hx        1 MOL      0.074397
     62 H29         6.0550   -1.4450   -4.1470 h1        1 MOL      0.064097
     63 H30         4.6740   -2.4630   -3.6770 h1        1 MOL      0.063197
     64 H31         6.9630   -1.6700   -2.0080 hn        1 MOL      0.325297
     65 H32         5.0980   -0.8000    0.2730 hn        1 MOL      0.522197
@<TRIPOS>BOND
     1    1    2 ar  
     2    1    3 ar  
     3    2    4 ar  
     4    3    7 ar  
     5    4    9 ar  
     6    5    6 ar  
     7    5   10 ar  
     8    6   11 ar  
     9    7    9 ar  
    10    7   13 1   
    11    8   10 ar  
    12    8   12 ar  
    13    8   14 1   
    14    9   24 1   
    15   10   25 1   
    16   11   12 ar  
    17   11   32 1   
    18   12   33 1   
    19   13   27 1   
    20   13   30 2   
    21   14   29 1   
    22   14   31 1   
    23   15   16 1   
    24   15   17 1   
    25   16   18 1   
    26   17   19 1   
    27   18   22 1   
    28   19   22 1   
    29   20   21 1   
    30   20   32 1   
    31   21   33 1   
    32   22   26 1   
    33   23   28 1   
    34   24   28 1   
    35   25   28 1   
    36   26   27 1   
    37    1   34 1   
    38    2   35 1   
    39    3   36 1   
    40    4   37 1   
    41    5   38 1   
    42    6   39 1   
    43   15   40 1   
    44   15   41 1   
    45   16   42 1   
    46   16   43 1   
    47   17   44 1   
    48   17   45 1   
    49   18   46 1   
    50   18   47 1   
    51   19   48 1   
    52   19   49 1   
    53   20   50 1   
    54   20   51 1   
    55   21   52 1   
    56   21   53 1   
    57   22   54 1   
    58   23   55 1   
    59   23   56 1   
    60   23   57 1   
    61   24   58 1   
    62   24   59 1   
    63   25   60 1   
    64   25   61 1   
    65   26   62 1   
    66   26   63 1   
    67   27   64 1   
    68   28   65 1   
@<TRIPOS>SUBSTRUCTURE
     1 MOL         1 TEMP              0 ****  ****    0 ROOT
