@<TRIPOS>MOLECULE
AVX-17375_2
   38    41     1     0     0
SMALL
No Charge or Current Charge


@<TRIPOS>ATOM
      1 C1         -1.9200    0.9560    0.2370 ca        1 MOL     -0.143497
      2 C2         -1.0710   -0.1530    0.1010 ca        1 MOL     -0.134897
      3 C3         -3.3000    0.7840    0.3650 ca        1 MOL     -0.131097
      4 C4         -1.5900   -1.4500    0.0890 ca        1 MOL     -0.100497
      5 C5         -5.6430   -5.2340   -1.1900 ca        1 MOL     -0.152697
      6 C6         -6.0570   -6.5680   -1.1800 ca        1 MOL     -0.147697
      7 C7         -3.3050   -5.9150   -1.1660 ca        1 MOL     -0.070497
      8 C8         -3.8050   -0.5060    0.3640 ca        1 MOL     -0.084497
      9 C9         -2.9600   -1.6130    0.2210 ca        1 MOL     -0.064897
     10 C10        -4.2750   -4.9090   -1.1830 ca        1 MOL     -0.070197
     11 C11        -5.0800   -7.5420   -1.1630 ca        1 MOL      0.032103
     12 C12        -3.7410   -7.2240   -1.1560 ca        1 MOL      0.062503
     13 C13        -1.8670   -5.6010   -1.1590 c         1 MOL      0.922103
     14 C14        -5.2390   -0.9290    0.4560 c3        1 MOL     -0.047497
     15 C15        -3.9360   -9.3790   -1.1360 c3        1 MOL      0.318703
     16 C16        -3.7410   -2.8990    0.2170 c3        1 MOL     -0.043597
     17 C17        -5.0960   -2.4240    0.7920 c3        1 MOL      0.136903
     18 C18        -3.8790   -3.4570   -1.1950 c3        1 MOL     -0.025497
     19 O1         -1.2540   -5.4810   -2.2860 o         1 MOL     -0.820697
     20 O2         -1.2700   -5.4570   -0.0280 o         1 MOL     -0.808597
     21 O3         -5.2920   -8.8860   -1.1510 os        1 MOL     -0.358597
     22 O4         -2.9470   -8.3290   -1.1400 os        1 MOL     -0.313697
     23 O5         -5.0820   -2.5610    2.2160 oh        1 MOL     -0.612097
     24 H1         -1.4990    1.9570    0.2390 ha        1 MOL      0.112103
     25 H2         -0.0000   -0.0000   -0.0000 ha        1 MOL      0.122603
     26 H3         -3.9560    1.6420    0.4630 ha        1 MOL      0.119403
     27 H4         -0.9320   -2.3040   -0.0230 ha        1 MOL      0.151603
     28 H5         -6.3910   -4.4450   -1.2040 ha        1 MOL      0.116303
     29 H6         -7.1110   -6.8230   -1.1850 ha        1 MOL      0.129403
     30 H7         -5.7730   -0.3760    1.2340 hc        1 MOL      0.061503
     31 H8         -5.7210   -0.7870   -0.5170 hc        1 MOL      0.054103
     32 H9         -3.7960   -9.9910   -0.2380 h2        1 MOL      0.049803
     33 H10        -3.7820  -10.0090   -2.0190 h2        1 MOL      0.049703
     34 H11        -3.2640   -3.6320    0.8770 hc        1 MOL      0.092703
     35 H12        -5.9500   -3.0030    0.4250 h1        1 MOL      0.062103
     36 H13        -2.9320   -3.3350   -1.7320 hc        1 MOL      0.067903
     37 H14        -4.6220   -2.8740   -1.7500 hc        1 MOL      0.062003
     38 H15        -4.9910   -3.5080    2.3960 ho        1 MOL      0.407203
@<TRIPOS>BOND
     1    1    2 ar  
     2    1    3 ar  
     3    2    4 ar  
     4    3    8 ar  
     5    4    9 ar  
     6    5    6 ar  
     7    5   10 ar  
     8    6   11 ar  
     9    7   10 ar  
    10    7   12 ar  
    11    7   13 1   
    12    8    9 ar  
    13    8   14 1   
    14    9   16 1   
    15   10   18 1   
    16   11   12 ar  
    17   11   21 1   
    18   12   22 1   
    19   13   19 1   
    20   13   20 1   
    21   14   17 1   
    22   15   21 1   
    23   15   22 1   
    24   16   17 1   
    25   16   18 1   
    26   17   23 1   
    27    1   24 1   
    28    2   25 1   
    29    3   26 1   
    30    4   27 1   
    31    5   28 1   
    32    6   29 1   
    33   14   30 1   
    34   14   31 1   
    35   15   32 1   
    36   15   33 1   
    37   16   34 1   
    38   17   35 1   
    39   18   36 1   
    40   18   37 1   
    41   23   38 1   
@<TRIPOS>SUBSTRUCTURE
     1 MOL         1 TEMP              0 ****  ****    0 ROOT
