@<TRIPOS>MOLECULE
AVX-17257_0
   32    34     1     0     0
SMALL
No Charge or Current Charge


@<TRIPOS>ATOM
      1 C1         -2.1740    5.0290    1.4510 ca        1 MOL     -0.143297
      2 C2          5.4220    5.1230   -2.0880 ca        1 MOL     -0.181897
      3 C3         -0.8770    5.5420    1.4310 ca        1 MOL     -0.167297
      4 C4          4.4710    6.1130   -2.3930 ca        1 MOL     -0.100697
      5 C5         -2.7000    4.4190    0.3120 ca        1 MOL     -0.119297
      6 C6          5.0210    3.8330   -1.7290 ca        1 MOL     -0.090897
      7 C7         -0.1060    5.4440    0.2730 ca        1 MOL     -0.129497
      8 C8          3.1040    5.8300   -2.3430 ca        1 MOL     -0.155897
      9 C9         -1.9290    4.3210   -0.8460 ca        1 MOL     -0.082297
     10 C10         3.6660    3.5630   -1.6820 ca        1 MOL     -0.146997
     11 C11        -0.6320    4.8340   -0.8660 ca        1 MOL     -0.104697
     12 C12         2.7260    4.5480   -1.9850 ca        1 MOL      0.081803
     13 C13         1.4900    2.6620   -1.4750 c         1 MOL      0.707603
     14 C14        -2.5040    3.6730   -2.0390 c         1 MOL      0.906003
     15 C15         2.9680    2.2880   -1.3330 c3        1 MOL     -0.111297
     16 C16         0.2200    4.7430   -2.0990 c3        1 MOL      0.142303
     17 N1          1.4390    4.0080   -1.8610 n         1 MOL     -0.357497
     18 O1         -3.1450    4.3980   -2.8870 o         1 MOL     -0.827297
     19 O2          0.5590    1.8950   -1.2780 o         1 MOL     -0.593697
     20 O3         -2.3460    2.4050   -2.1890 o         1 MOL     -0.820197
     21 H1         -2.7740    5.1050    2.3530 ha        1 MOL      0.104403
     22 H2          6.4800    5.3650   -2.1340 ha        1 MOL      0.116603
     23 H3         -0.4680    6.0170    2.3180 ha        1 MOL      0.104303
     24 H4          4.8060    7.1090   -2.6700 ha        1 MOL      0.120703
     25 H5         -3.7120    4.0220    0.3380 ha        1 MOL      0.135503
     26 H6          5.7550    3.0710   -1.4940 ha        1 MOL      0.121203
     27 H7          0.9030    5.8490    0.2670 ha        1 MOL      0.109303
     28 H8          2.3780    6.5990   -2.5800 ha        1 MOL      0.155203
     29 H9          3.2130    1.4920   -2.0410 hc        1 MOL      0.084003
     30 H10         3.1720    1.9910   -0.3020 hc        1 MOL      0.086003
     31 H11        -0.3240    4.2420   -2.9070 h1        1 MOL      0.086703
     32 H12         0.4950    5.7400   -2.4610 h1        1 MOL      0.071103
@<TRIPOS>BOND
     1    1    3 ar  
     2    1    5 ar  
     3    2    4 ar  
     4    2    6 ar  
     5    3    7 ar  
     6    4    8 ar  
     7    5    9 ar  
     8    6   10 ar  
     9    7   11 ar  
    10    8   12 ar  
    11    9   11 ar  
    12    9   14 1   
    13   10   12 ar  
    14   10   15 1   
    15   11   16 1   
    16   12   17 1   
    17   13   15 1   
    18   13   17 1   
    19   13   19 2   
    20   14   18 1   
    21   14   20 1   
    22   16   17 1   
    23    1   21 1   
    24    2   22 1   
    25    3   23 1   
    26    4   24 1   
    27    5   25 1   
    28    6   26 1   
    29    7   27 1   
    30    8   28 1   
    31   15   29 1   
    32   15   30 1   
    33   16   31 1   
    34   16   32 1   
@<TRIPOS>SUBSTRUCTURE
     1 MOL         1 TEMP              0 ****  ****    0 ROOT
