@<TRIPOS>MOLECULE
AVX38785_1
   67    70     1     0     0
SMALL
No Charge or Current Charge


@<TRIPOS>ATOM
      1 C1          5.3180    2.7040    4.1360 ca        1 MOL     -0.113303
      2 C2          1.1310   -4.9550    5.1680 ca        1 MOL     -0.106803
      3 C3          5.8100    1.7180    3.2800 ca        1 MOL     -0.132803
      4 C4          4.9230    2.3690    5.4310 ca        1 MOL     -0.128103
      5 C5          0.5850   -5.0960    3.8920 ca        1 MOL     -0.111003
      6 C6          2.3770   -4.3490    5.3300 ca        1 MOL     -0.092803
      7 C7          5.9060    0.3980    3.7190 ca        1 MOL     -0.112203
      8 C8          5.0190    1.0480    5.8700 ca        1 MOL     -0.107003
      9 C9          1.2840   -4.6300    2.7790 ca        1 MOL     -0.107203
     10 C10         1.9000    0.5440   -0.2750 ca        1 MOL     -0.125703
     11 C11         1.8190    1.9320   -0.3820 ca        1 MOL     -0.149303
     12 C12         3.0760   -3.8820    4.2170 ca        1 MOL     -0.091603
     13 C13         1.6290    0.7060    2.1230 ca        1 MOL     -0.079603
     14 C14         5.5110    0.0630    5.0140 ca        1 MOL     -0.117103
     15 C15         2.5300   -4.0230    2.9410 ca        1 MOL     -0.095303
     16 C16         1.8110   -0.0680    0.9760 ca        1 MOL     -0.181603
     17 C17         1.6520    2.7080    0.7660 ca        1 MOL      0.098397
     18 C18         1.5350    2.0940    2.0150 ca        1 MOL      0.074997
     19 C19         4.3750   -3.2530    4.4150 c         1 MOL      0.649197
     20 C20         1.5260    0.0540    3.4440 c         1 MOL      0.921997
     21 C21         2.0700    8.3710    0.2940 c         1 MOL      0.910597
     22 C22         0.9110    4.1410    2.9160 c3        1 MOL      0.086797
     23 C23         1.7810    4.7700    1.8360 c3        1 MOL      0.100097
     24 C24         4.3850   -1.5240    0.7700 c3        1 MOL      0.092097
     25 C25         5.6140   -1.3590    5.4870 c3        1 MOL      0.130397
     26 C26         3.2600   -3.5310    1.7260 c3        1 MOL      0.155197
     27 C27         1.9100   -1.5570    1.0570 c3        1 MOL      0.188597
     28 C28         2.3220    6.8880    0.5910 c3        1 MOL     -0.199903
     29 C29         1.4050    6.2260    1.6000 c3        1 MOL     -0.054303
     30 N1          4.4080   -2.1070    5.2160 n         1 MOL     -0.525203
     31 N2          3.2200   -2.0310    1.5800 n4        1 MOL     -0.716003
     32 O1          0.3630   -0.2930    3.8680 o         1 MOL     -0.742803
     33 O2          2.8370    8.9140   -0.5480 o         1 MOL     -0.845803
     34 O3          5.3890   -3.7190    3.8690 o         1 MOL     -0.646303
     35 O4          2.6020   -0.1410    4.1190 o         1 MOL     -0.883703
     36 O5          1.0990    8.8700    0.9320 o         1 MOL     -0.851203
     37 O6          1.3360    2.7980    3.1730 os        1 MOL     -0.297203
     38 O7          1.6010    4.0670    0.5990 os        1 MOL     -0.300003
     39 H1          5.2450    3.7320    3.7950 ha        1 MOL      0.139097
     40 H2          0.5880   -5.3180    6.0350 ha        1 MOL      0.139797
     41 H3          6.1190    1.9790    2.2720 ha        1 MOL      0.132797
     42 H4          4.5410    3.1360    6.0990 ha        1 MOL      0.134297
     43 H5         -0.3850   -5.5690    3.7670 ha        1 MOL      0.139697
     44 H6          2.7920   -4.2460    6.3300 ha        1 MOL      0.149197
     45 H7          6.2900   -0.3630    3.0450 ha        1 MOL      0.130197
     46 H8          4.7080    0.7960    6.8810 ha        1 MOL      0.130397
     47 H9          0.8490   -4.7440    1.7900 ha        1 MOL      0.134697
     48 H10         2.0380   -0.0530   -1.1720 ha        1 MOL      0.113797
     49 H11         1.9010    2.4010   -1.3590 ha        1 MOL      0.154297
     50 H12         0.9970    4.6960    3.8560 h1        1 MOL      0.086897
     51 H13        -0.1480    4.1200    2.6290 h1        1 MOL      0.058097
     52 H14         2.8430    4.7090    2.1090 h1        1 MOL      0.064897
     53 H15         4.2860   -1.9200   -0.2420 hx        1 MOL      0.068197
     54 H16         4.3430   -0.4330    0.7700 hx        1 MOL      0.115497
     55 H17         5.3020   -1.8810    1.2430 hx        1 MOL      0.081097
     56 H18         6.4470   -1.8700    4.9930 h1        1 MOL      0.062997
     57 H19         5.7990   -1.4010    6.5660 h1        1 MOL      0.053897
     58 H20         4.3170   -3.8160    1.7580 hx        1 MOL      0.113897
     59 H21         2.8290   -3.9480    0.8100 hx        1 MOL      0.077097
     60 H22         1.1420   -1.9760    1.7190 hx        1 MOL      0.108997
     61 H23         1.7840   -2.0220    0.0710 hx        1 MOL      0.066397
     62 H24         3.3460    6.8250    0.9800 hc        1 MOL      0.022597
     63 H25         2.3040    6.3350   -0.3560 hc        1 MOL      0.032897
     64 H26         0.3630    6.2620    1.2870 hc        1 MOL      0.067297
     65 H27         1.4830    6.7360    2.5600 hc        1 MOL      0.051997
     66 H28         3.5400   -1.7340    5.5860 hn        1 MOL      0.357097
     67 H29         3.3380   -1.6430    2.5300 hn        1 MOL      0.517397
@<TRIPOS>BOND
     1    1    3 ar  
     2    1    4 ar  
     3    2    5 ar  
     4    2    6 ar  
     5    3    7 ar  
     6    4    8 ar  
     7    5    9 ar  
     8    6   12 ar  
     9    7   14 ar  
    10    8   14 ar  
    11    9   15 ar  
    12   10   11 ar  
    13   10   16 ar  
    14   11   17 ar  
    15   12   15 ar  
    16   12   19 1   
    17   13   16 ar  
    18   13   18 ar  
    19   13   20 1   
    20   14   25 1   
    21   15   26 1   
    22   16   27 1   
    23   17   18 ar  
    24   17   38 1   
    25   18   37 1   
    26   19   30 1   
    27   19   34 2   
    28   20   32 1   
    29   20   35 1   
    30   21   28 1   
    31   21   33 1   
    32   21   36 1   
    33   22   23 1   
    34   22   37 1   
    35   23   29 1   
    36   23   38 1   
    37   24   31 1   
    38   25   30 1   
    39   26   31 1   
    40   27   31 1   
    41   28   29 1   
    42    1   39 1   
    43    2   40 1   
    44    3   41 1   
    45    4   42 1   
    46    5   43 1   
    47    6   44 1   
    48    7   45 1   
    49    8   46 1   
    50    9   47 1   
    51   10   48 1   
    52   11   49 1   
    53   22   50 1   
    54   22   51 1   
    55   23   52 1   
    56   24   53 1   
    57   24   54 1   
    58   24   55 1   
    59   25   56 1   
    60   25   57 1   
    61   26   58 1   
    62   26   59 1   
    63   27   60 1   
    64   27   61 1   
    65   28   62 1   
    66   28   63 1   
    67   29   64 1   
    68   29   65 1   
    69   30   66 1   
    70   31   67 1   
@<TRIPOS>SUBSTRUCTURE
     1 MOL         1 TEMP              0 ****  ****    0 ROOT
