@<TRIPOS>MOLECULE
AVX101118_0
   65    68     0     0     0
SMALL
NO_CHARGES

@<TRIPOS>ATOM
      1 C1          9.0570   -1.5984   -1.5950 C.ar      1 MOL         0.0000
      2 C2          8.9174   -0.6778   -0.5565 C.ar      1 MOL         0.0000
      3 C3          7.9278   -2.0752   -2.2609 C.ar      1 MOL         0.0000
      4 C4          7.6486   -0.2339   -0.1839 C.ar      1 MOL         0.0000
      5 C5          1.7297   -0.6483   -0.2263 C.ar      1 MOL         0.0000
      6 C6          0.7628   -1.6205   -0.4843 C.ar      1 MOL         0.0000
      7 C7          6.6591   -1.6313   -1.8883 C.ar      1 MOL         0.0000
      8 C8          1.8023   -0.0866   -2.5769 C.ar      1 MOL         0.0000
      9 C9          6.5194   -0.7106   -0.8497 C.ar      1 MOL         0.0000
     10 C10         2.2448    0.1209   -1.2701 C.ar      1 MOL         0.0000
     11 C11         0.3100   -1.8196   -1.7889 C.ar      1 MOL         0.0000
     12 C12         0.8454   -1.0678   -2.8378 C.ar      1 MOL         0.0000
     13 C13         5.4737   -2.1561   -2.6140 C.2       1 MOL         0.0000
     14 C14         2.3524    0.7133   -3.6671 C.2       1 MOL         0.0000
     15 C15         4.5898   -5.7275   -7.5474 C.3       1 MOL         0.0000
     16 C16         3.5754   -5.7869   -6.4095 C.3       1 MOL         0.0000
     17 C17         5.8877   -5.0574   -7.1074 C.3       1 MOL         0.0000
     18 C18         3.3177   -4.4056   -5.8118 C.3       1 MOL         0.0000
     19 C19         5.6339   -3.6749   -6.5106 C.3       1 MOL         0.0000
     20 C20        -1.2817   -2.6554   -3.2566 C.3       1 MOL         0.0000
     21 C21        -0.2353   -2.4702   -4.3382 C.3       1 MOL         0.0000
     22 C22         4.6204   -3.7319   -5.3597 C.3       1 MOL         0.0000
     23 C23         5.4989    1.9166   -1.4811 C.3       1 MOL         0.0000
     24 C24         5.1729   -0.2190   -0.4298 C.3       1 MOL         0.0000
     25 C25         3.2788    1.1629   -0.9554 C.3       1 MOL         0.0000
     26 C26         4.3429   -2.3319   -4.8154 C.3       1 MOL         0.0000
     27 N1          5.4244   -1.9132   -3.9891 N.am      1 MOL         0.0000
     28 N2          4.6280    0.7383   -1.3574 N.3       1 MOL         0.0000
     29 O1          4.5996   -2.7482   -1.9864 O.2       1 MOL         0.0000
     30 O2          3.5413    0.7543   -3.9885 O.2       1 MOL         0.0000
     31 O3         -0.6551   -2.7744   -1.9764 O.3       1 MOL         0.0000
     32 O4          0.4660   -1.2390   -4.1435 O.3       1 MOL         0.0000
     33 O5          1.3955    1.4297   -4.3140 O.3       1 MOL         0.0000
     34 H1         10.0448   -1.9443   -1.8857 H         1 MOL         0.0000
     35 H2          9.7970   -0.3071   -0.0382 H         1 MOL         0.0000
     36 H3          8.0498   -2.7933   -3.0678 H         1 MOL         0.0000
     37 H4          7.5510    0.4839    0.6263 H         1 MOL         0.0000
     38 H5          2.0730   -0.4953    0.7936 H         1 MOL         0.0000
     39 H6          0.3615   -2.2097    0.3356 H         1 MOL         0.0000
     40 H7          4.8014   -6.7412   -7.9060 H         1 MOL         0.0000
     41 H8          4.1602   -5.1719   -8.3900 H         1 MOL         0.0000
     42 H9          2.6342   -6.2111   -6.7776 H         1 MOL         0.0000
     43 H10         3.9442   -6.4603   -5.6260 H         1 MOL         0.0000
     44 H11         6.3911   -5.6884   -6.3646 H         1 MOL         0.0000
     45 H12         6.5656   -4.9706   -7.9641 H         1 MOL         0.0000
     46 H13         2.8127   -3.7790   -6.5581 H         1 MOL         0.0000
     47 H14         2.6313   -4.5015   -4.9619 H         1 MOL         0.0000
     48 H15         6.5822   -3.2552   -6.1540 H         1 MOL         0.0000
     49 H16         5.2669   -3.0046   -7.2986 H         1 MOL         0.0000
     50 H17        -1.9847   -1.8140   -3.2254 H         1 MOL         0.0000
     51 H18        -1.8521   -3.5724   -3.4338 H         1 MOL         0.0000
     52 H19         0.4930   -3.2905   -4.3399 H         1 MOL         0.0000
     53 H20        -0.7095   -2.4311   -5.3238 H         1 MOL         0.0000
     54 H21         5.0544   -4.3298   -4.5471 H         1 MOL         0.0000
     55 H22         5.0679    2.6297   -2.1887 H         1 MOL         0.0000
     56 H23         6.4882    1.6195   -1.8395 H         1 MOL         0.0000
     57 H24         5.6106    2.4076   -0.5107 H         1 MOL         0.0000
     58 H25         4.4577   -1.0487   -0.3510 H         1 MOL         0.0000
     59 H26         5.2119    0.2631    0.5558 H         1 MOL         0.0000
     60 H27         3.0520    2.1009   -1.4738 H         1 MOL         0.0000
     61 H28         3.3024    1.3817    0.1173 H         1 MOL         0.0000
     62 H29         3.4339   -2.3615   -4.2295 H         1 MOL         0.0000
     63 H30         4.2394   -1.6463   -5.6454 H         1 MOL         0.0000
     64 H31         6.1703   -1.3553   -4.4161 H         1 MOL         0.0000
     65 H32         1.7552    1.9702   -5.0494 H         1 MOL         0.0000
@<TRIPOS>BOND
     1    1    2 ar
     2    1    3 ar
     3    2    4 ar
     4    3    7 ar
     5    4    9 ar
     6    5    6 ar
     7    5   10 ar
     8    6   11 ar
     9    7    9 ar
    10    7   13 1
    11    8   10 ar
    12    8   12 ar
    13    8   14 1
    14    9   24 1
    15   10   25 1
    16   11   12 ar
    17   11   31 1
    18   12   32 1
    19   13   27 am
    20   13   29 2
    21   14   30 2
    22   14   33 1
    23   15   16 1
    24   15   17 1
    25   16   18 1
    26   17   19 1
    27   18   22 1
    28   19   22 1
    29   20   21 1
    30   20   31 1
    31   21   32 1
    32   22   26 1
    33   23   28 1
    34   24   28 1
    35   25   28 1
    36   26   27 1
    37    1   34 1
    38    2   35 1
    39    3   36 1
    40    4   37 1
    41    5   38 1
    42    6   39 1
    43   15   40 1
    44   15   41 1
    45   16   42 1
    46   16   43 1
    47   17   44 1
    48   17   45 1
    49   18   46 1
    50   18   47 1
    51   19   48 1
    52   19   49 1
    53   20   50 1
    54   20   51 1
    55   21   52 1
    56   21   53 1
    57   22   54 1
    58   23   55 1
    59   23   56 1
    60   23   57 1
    61   24   58 1
    62   24   59 1
    63   25   60 1
    64   25   61 1
    65   26   62 1
    66   26   63 1
    67   27   64 1
    68   33   65 1
