@<TRIPOS>MOLECULE
AVX101118_0
   65    68     1     0     0
SMALL
No Charge or Current Charge


@<TRIPOS>ATOM
      1 C1          9.0570   -1.5980   -1.5950 ca        1 MOL     -0.131498
      2 C2          8.9170   -0.6780   -0.5560 ca        1 MOL     -0.113599
      3 C3          7.9280   -2.0750   -2.2610 ca        1 MOL     -0.107898
      4 C4          7.6490   -0.2340   -0.1840 ca        1 MOL     -0.126299
      5 C5          1.7300   -0.6480   -0.2260 ca        1 MOL     -0.136099
      6 C6          0.7630   -1.6210   -0.4840 ca        1 MOL     -0.098999
      7 C7          6.6590   -1.6310   -1.8880 ca        1 MOL     -0.121098
      8 C8          1.8020   -0.0870   -2.5770 ca        1 MOL     -0.088998
      9 C9          6.5190   -0.7110   -0.8500 ca        1 MOL     -0.040299
     10 C10         2.2450    0.1210   -1.2700 ca        1 MOL     -0.035298
     11 C11         0.3100   -1.8200   -1.7890 ca        1 MOL      0.047801
     12 C12         0.8450   -1.0680   -2.8380 ca        1 MOL      0.097301
     13 C13         5.4740   -2.1560   -2.6140 c         1 MOL      0.670501
     14 C14         2.3520    0.7130   -3.6670 c         1 MOL      0.677002
     15 C15         4.5900   -5.7280   -7.5470 c3        1 MOL     -0.076598
     16 C16         3.5750   -5.7870   -6.4100 c3        1 MOL     -0.076199
     17 C17         5.8880   -5.0570   -7.1070 c3        1 MOL     -0.075799
     18 C18         3.3180   -4.4060   -5.8120 c3        1 MOL     -0.073098
     19 C19         5.6340   -3.6750   -6.5110 c3        1 MOL     -0.071198
     20 C20        -1.2820   -2.6550   -3.2570 c3        1 MOL      0.087802
     21 C21        -0.2350   -2.4700   -4.3380 c3        1 MOL      0.089102
     22 C22         4.6200   -3.7320   -5.3600 c3        1 MOL     -0.093699
     23 C23         5.4990    1.9170   -1.4810 c3        1 MOL      0.155401
     24 C24         5.1730   -0.2190   -0.4300 c3        1 MOL      0.203002
     25 C25         3.2790    1.1630   -0.9550 c3        1 MOL      0.201402
     26 C26         4.3430   -2.3320   -4.8150 c3        1 MOL      0.091102
     27 N1          5.4240   -1.9130   -3.9890 n         1 MOL     -0.558898
     28 N2          4.6280    0.7380   -1.3570 n3        1 MOL     -0.729098
     29 O1          4.6000   -2.7480   -1.9860 o         1 MOL     -0.592498
     30 O2          3.5410    0.7540   -3.9890 o         1 MOL     -0.551399
     31 O3         -0.6550   -2.7740   -1.9760 os        1 MOL     -0.313999
     32 O4          0.4660   -1.2390   -4.1440 os        1 MOL     -0.305198
     33 O5          1.3950    1.4300   -4.3140 oh        1 MOL     -0.582699
     34 H1         10.0450   -1.9440   -1.8860 ha        1 MOL      0.134501
     35 H2          9.7970   -0.3070   -0.0380 ha        1 MOL      0.134202
     36 H3          8.0500   -2.7930   -3.0680 ha        1 MOL      0.139702
     37 H4          7.5510    0.4840    0.6260 ha        1 MOL      0.138301
     38 H5          2.0730   -0.4950    0.7940 ha        1 MOL      0.142601
     39 H6          0.3610   -2.2100    0.3360 ha        1 MOL      0.154701
     40 H7          4.8010   -6.7410   -7.9060 hc        1 MOL      0.038601
     41 H8          4.1600   -5.1720   -8.3900 hc        1 MOL      0.038502
     42 H9          2.6340   -6.2110   -6.7780 hc        1 MOL      0.038901
     43 H10         3.9440   -6.4600   -5.6260 hc        1 MOL      0.040801
     44 H11         6.3910   -5.6880   -6.3650 hc        1 MOL      0.040702
     45 H12         6.5660   -4.9710   -7.9640 hc        1 MOL      0.038401
     46 H13         2.8130   -3.7790   -6.5580 hc        1 MOL      0.039101
     47 H14         2.6310   -4.5020   -4.9620 hc        1 MOL      0.039302
     48 H15         6.5820   -3.2550   -6.1540 hc        1 MOL      0.039502
     49 H16         5.2670   -3.0050   -7.2990 hc        1 MOL      0.038002
     50 H17        -1.9850   -1.8140   -3.2250 h1        1 MOL      0.061102
     51 H18        -1.8520   -3.5720   -3.4340 h1        1 MOL      0.085201
     52 H19         0.4930   -3.2910   -4.3400 h1        1 MOL      0.063901
     53 H20        -0.7100   -2.4310   -5.3240 h1        1 MOL      0.087302
     54 H21         5.0540   -4.3300   -4.5470 hc        1 MOL      0.062901
     55 H22         5.0680    2.6300   -2.1890 h1        1 MOL      0.054802
     56 H23         6.4880    1.6190   -1.8390 h1        1 MOL      0.021802
     57 H24         5.6110    2.4080   -0.5110 h1        1 MOL      0.031802
     58 H25         4.4580   -1.0490   -0.3510 h1        1 MOL      0.071901
     59 H26         5.2120    0.2630    0.5560 h1        1 MOL      0.029001
     60 H27         3.0520    2.1010   -1.4740 h1        1 MOL      0.069402
     61 H28         3.3020    1.3820    0.1170 h1        1 MOL      0.035602
     62 H29         3.4340   -2.3610   -4.2290 h1        1 MOL      0.059402
     63 H30         4.2390   -1.6460   -5.6450 h1        1 MOL      0.062101
     64 H31         6.1700   -1.3550   -4.4160 hn        1 MOL      0.307002
     65 H32         1.7550    1.9700   -5.0490 ho        1 MOL      0.441002
@<TRIPOS>BOND
     1    1    2 ar  
     2    1    3 ar  
     3    2    4 ar  
     4    3    7 ar  
     5    4    9 ar  
     6    5    6 ar  
     7    5   10 ar  
     8    6   11 ar  
     9    7    9 ar  
    10    7   13 1   
    11    8   10 ar  
    12    8   12 ar  
    13    8   14 1   
    14    9   24 1   
    15   10   25 1   
    16   11   12 ar  
    17   11   31 1   
    18   12   32 1   
    19   13   27 1   
    20   13   29 2   
    21   14   30 2   
    22   14   33 1   
    23   15   16 1   
    24   15   17 1   
    25   16   18 1   
    26   17   19 1   
    27   18   22 1   
    28   19   22 1   
    29   20   21 1   
    30   20   31 1   
    31   21   32 1   
    32   22   26 1   
    33   23   28 1   
    34   24   28 1   
    35   25   28 1   
    36   26   27 1   
    37    1   34 1   
    38    2   35 1   
    39    3   36 1   
    40    4   37 1   
    41    5   38 1   
    42    6   39 1   
    43   15   40 1   
    44   15   41 1   
    45   16   42 1   
    46   16   43 1   
    47   17   44 1   
    48   17   45 1   
    49   18   46 1   
    50   18   47 1   
    51   19   48 1   
    52   19   49 1   
    53   20   50 1   
    54   20   51 1   
    55   21   52 1   
    56   21   53 1   
    57   22   54 1   
    58   23   55 1   
    59   23   56 1   
    60   23   57 1   
    61   24   58 1   
    62   24   59 1   
    63   25   60 1   
    64   25   61 1   
    65   26   62 1   
    66   26   63 1   
    67   27   64 1   
    68   33   65 1   
@<TRIPOS>SUBSTRUCTURE
     1 MOL         1 TEMP              0 ****  ****    0 ROOT
