@<TRIPOS>MOLECULE
AVX38779_1
   72    74     0     0     0
SMALL
NO_CHARGES

@<TRIPOS>ATOM
      1 C1          5.9314    0.0404   -2.1796 C.ar      1 MOL         0.0000
      2 C2          4.9947    0.8861   -1.5855 C.ar      1 MOL         0.0000
      3 C3          6.3263   -1.1290   -1.5298 C.ar      1 MOL         0.0000
      4 C4          4.4530    0.5624   -0.3415 C.ar      1 MOL         0.0000
      5 C5         -0.0164   -3.1210    1.2009 C.ar      1 MOL         0.0000
      6 C6         -0.8100   -4.1459    0.6854 C.ar      1 MOL         0.0000
      7 C7          5.7846   -1.4527   -0.2859 C.ar      1 MOL         0.0000
      8 C8          1.3729   -3.1932   -0.7766 C.ar      1 MOL         0.0000
      9 C9          4.8479   -0.6070    0.3083 C.ar      1 MOL         0.0000
     10 C10         1.0768   -2.6492    0.4735 C.ar      1 MOL         0.0000
     11 C11        -0.5061   -4.6999   -0.5585 C.ar      1 MOL         0.0000
     12 C12         0.5714   -4.2087   -1.2988 C.ar      1 MOL         0.0000
     13 C13         1.4019   -2.0524    4.6346 C.2       1 MOL         0.0000
     14 C14         2.5503   -1.8386    3.9832 C.2       1 MOL         0.0000
     15 C15         6.2150   -2.6795    0.3710 C.2       1 MOL         0.0000
     16 C16         2.5106   -2.6877   -1.5391 C.2       1 MOL         0.0000
     17 C17        -3.4180   -9.2035   -2.3385 C.2       1 MOL         0.0000
     18 C18        -0.1626   -5.4543   -3.1153 C.3       1 MOL         0.0000
     19 C19        -0.7172   -6.4368   -2.0921 C.3       1 MOL         0.0000
     20 C20         7.5148   -2.5868    4.1736 C.3       1 MOL         0.0000
     21 C21         8.9134   -4.4163    1.0418 C.3       1 MOL         0.0000
     22 C22         4.2496   -0.9303    1.6457 C.3       1 MOL         0.0000
     23 C23         1.9101   -1.5550    1.0585 C.3       1 MOL         0.0000
     24 C24         3.0772   -2.7312    2.9083 C.3       1 MOL         0.0000
     25 C25        -2.3619   -8.3295   -1.7090 C.3       1 MOL         0.0000
     26 C26        -1.7937   -7.3227   -2.7019 C.3       1 MOL         0.0000
     27 C27         8.5085   -3.2898    3.2576 C.3       1 MOL         0.0000
     28 C28         7.8832   -3.7189    1.9240 C.3       1 MOL         0.0000
     29 N1          7.3228   -2.5879    1.2200 N.am      1 MOL         0.0000
     30 N2          3.2196   -2.0291    1.5819 N.4       1 MOL         0.0000
     31 O1          5.6223   -3.7500    0.1549 O.2       1 MOL         0.0000
     32 O2          2.6497   -1.5244   -1.9206 O.2       1 MOL         0.0000
     33 O3         -3.7102   -9.1701   -3.5272 O.2       1 MOL         0.0000
     34 O4          0.9000   -4.6880   -2.5395 O.3       1 MOL         0.0000
     35 O5         -1.3096   -5.7171   -1.0021 O.3       1 MOL         0.0000
     36 O6          3.4305   -3.6553   -1.7939 O.3       1 MOL         0.0000
     37 O7         -3.9954  -10.0535   -1.4542 O.3       1 MOL         0.0000
     38 H1          6.3534    0.2919   -3.1485 H         1 MOL         0.0000
     39 H2          4.6878    1.7967   -2.0918 H         1 MOL         0.0000
     40 H3          7.0578   -1.7792   -2.0028 H         1 MOL         0.0000
     41 H4          3.7235    1.2280    0.1124 H         1 MOL         0.0000
     42 H5         -0.2558   -2.6994    2.1738 H         1 MOL         0.0000
     43 H6         -1.6533   -4.5139    1.2633 H         1 MOL         0.0000
     44 H7          1.0700   -1.3638    5.4038 H         1 MOL         0.0000
     45 H8          0.7758   -2.9099    4.4144 H         1 MOL         0.0000
     46 H9          3.1382   -0.9608    4.2386 H         1 MOL         0.0000
     47 H10         0.2481   -5.9859   -3.9799 H         1 MOL         0.0000
     48 H11        -0.9330   -4.7614   -3.4776 H         1 MOL         0.0000
     49 H12         0.0846   -7.0683   -1.6864 H         1 MOL         0.0000
     50 H13         6.6561   -3.2267    4.3987 H         1 MOL         0.0000
     51 H14         7.9962   -2.3269    5.1218 H         1 MOL         0.0000
     52 H15         7.1466   -1.6628    3.7166 H         1 MOL         0.0000
     53 H16         9.7597   -3.7551    0.8291 H         1 MOL         0.0000
     54 H17         9.2987   -5.3231    1.5215 H         1 MOL         0.0000
     55 H18         8.4684   -4.7139    0.0858 H         1 MOL         0.0000
     56 H19         5.0176   -1.2598    2.3537 H         1 MOL         0.0000
     57 H20         3.7507   -0.0560    2.0775 H         1 MOL         0.0000
     58 H21         2.1354   -0.7802    0.3147 H         1 MOL         0.0000
     59 H22         1.3990   -1.0664    1.8978 H         1 MOL         0.0000
     60 H23         2.3914   -3.5675    2.7421 H         1 MOL         0.0000
     61 H24         4.0663   -3.1339    3.1483 H         1 MOL         0.0000
     62 H25        -1.5715   -8.9412   -1.2604 H         1 MOL         0.0000
     63 H26        -2.8412   -7.8015   -0.8757 H         1 MOL         0.0000
     64 H27        -2.6087   -6.6839   -3.0617 H         1 MOL         0.0000
     65 H28        -1.3809   -7.8409   -3.5755 H         1 MOL         0.0000
     66 H29         9.3443   -2.6059    3.0663 H         1 MOL         0.0000
     67 H30         8.9195   -4.1614    3.7819 H         1 MOL         0.0000
     68 H31         7.0546   -4.4110    2.1136 H         1 MOL         0.0000
     69 H32         7.8076   -1.7011    1.3111 H         1 MOL         0.0000
     70 H33         3.5872   -2.7313    0.9190 H         1 MOL         0.0000
     71 H34         4.1998   -3.3253   -2.3053 H         1 MOL         0.0000
     72 H35        -4.6752  -10.6535   -1.8282 H         1 MOL         0.0000
@<TRIPOS>BOND
     1    1    2 ar
     2    1    3 ar
     3    2    4 ar
     4    3    7 ar
     5    4    9 ar
     6    5    6 ar
     7    5   10 ar
     8    6   11 ar
     9    7    9 ar
    10    7   15 1
    11    8   10 ar
    12    8   12 ar
    13    8   16 1
    14    9   22 1
    15   10   23 1
    16   11   12 ar
    17   11   35 1
    18   12   34 1
    19   13   14 2
    20   14   24 1
    21   15   29 am
    22   15   31 2
    23   16   32 2
    24   16   36 1
    25   17   25 1
    26   17   33 2
    27   17   37 1
    28   18   19 1
    29   18   34 1
    30   19   26 1
    31   19   35 1
    32   20   27 1
    33   21   28 1
    34   22   30 1
    35   23   30 1
    36   24   30 1
    37   25   26 1
    38   27   28 1
    39   28   29 1
    40    1   38 1
    41    2   39 1
    42    3   40 1
    43    4   41 1
    44    5   42 1
    45    6   43 1
    46   13   44 1
    47   13   45 1
    48   14   46 1
    49   18   47 1
    50   18   48 1
    51   19   49 1
    52   20   50 1
    53   20   51 1
    54   20   52 1
    55   21   53 1
    56   21   54 1
    57   21   55 1
    58   22   56 1
    59   22   57 1
    60   23   58 1
    61   23   59 1
    62   24   60 1
    63   24   61 1
    64   25   62 1
    65   25   63 1
    66   26   64 1
    67   26   65 1
    68   27   66 1
    69   27   67 1
    70   28   68 1
    71   29   69 1
    72   30   70 1
    73   36   71 1
    74   37   72 1
