@<TRIPOS>MOLECULE
AVX38779_1
   72    74     1     0     0
SMALL
No Charge or Current Charge


@<TRIPOS>ATOM
      1 C1          5.9310    0.0400   -2.1800 ca        1 MOL     -0.088901
      2 C2          4.9950    0.8860   -1.5850 ca        1 MOL     -0.101501
      3 C3          6.3260   -1.1290   -1.5300 ca        1 MOL     -0.099101
      4 C4          4.4530    0.5620   -0.3420 ca        1 MOL     -0.112101
      5 C5         -0.0160   -3.1210    1.2010 ca        1 MOL     -0.116801
      6 C6         -0.8100   -4.1460    0.6850 ca        1 MOL     -0.101601
      7 C7          5.7850   -1.4530   -0.2860 ca        1 MOL     -0.113901
      8 C8          1.3730   -3.1930   -0.7770 ca        1 MOL     -0.095401
      9 C9          4.8480   -0.6070    0.3080 ca        1 MOL     -0.129201
     10 C10         1.0770   -2.6490    0.4730 ca        1 MOL     -0.131301
     11 C11        -0.5060   -4.7000   -0.5580 ca        1 MOL      0.098299
     12 C12         0.5710   -4.2090   -1.2990 ca        1 MOL      0.110799
     13 C13         1.4020   -2.0520    4.6350 c2        1 MOL     -0.123701
     14 C14         2.5500   -1.8390    3.9830 c2        1 MOL     -0.250601
     15 C15         6.2150   -2.6790    0.3710 c         1 MOL      0.653099
     16 C16         2.5110   -2.6880   -1.5390 c         1 MOL      0.649399
     17 C17        -3.4180   -9.2040   -2.3380 c         1 MOL      0.631099
     18 C18        -0.1630   -5.4540   -3.1150 c3        1 MOL      0.090599
     19 C19        -0.7170   -6.4370   -2.0920 c3        1 MOL      0.100399
     20 C20         7.5150   -2.5870    4.1740 c3        1 MOL     -0.094201
     21 C21         8.9130   -4.4160    1.0420 c3        1 MOL     -0.115801
     22 C22         4.2500   -0.9300    1.6460 c3        1 MOL      0.161199
     23 C23         1.9100   -1.5550    1.0580 c3        1 MOL      0.160599
     24 C24         3.0770   -2.7310    2.9080 c3        1 MOL      0.149899
     25 C25        -2.3620   -8.3290   -1.7090 c3        1 MOL     -0.128001
     26 C26        -1.7940   -7.3230   -2.7020 c3        1 MOL     -0.075201
     27 C27         8.5080   -3.2900    3.2580 c3        1 MOL     -0.094801
     28 C28         7.8830   -3.7190    1.9240 c3        1 MOL      0.095299
     29 N1          7.3230   -2.5880    1.2200 n         1 MOL     -0.551401
     30 N2          3.2200   -2.0290    1.5820 n4        1 MOL     -0.691201
     31 O1          5.6220   -3.7500    0.1550 o         1 MOL     -0.613101
     32 O2          2.6500   -1.5240   -1.9210 o         1 MOL     -0.534701
     33 O3         -3.7100   -9.1700   -3.5270 o         1 MOL     -0.542301
     34 O4          0.9000   -4.6880   -2.5390 os        1 MOL     -0.299401
     35 O5         -1.3100   -5.7170   -1.0020 os        1 MOL     -0.303801
     36 O6          3.4300   -3.6550   -1.7940 oh        1 MOL     -0.579901
     37 O7         -3.9950  -10.0530   -1.4540 oh        1 MOL     -0.604101
     38 H1          6.3530    0.2920   -3.1480 ha        1 MOL      0.161099
     39 H2          4.6880    1.7970   -2.0920 ha        1 MOL      0.157699
     40 H3          7.0580   -1.7790   -2.0030 ha        1 MOL      0.160099
     41 H4          3.7240    1.2280    0.1120 ha        1 MOL      0.139199
     42 H5         -0.2560   -2.6990    2.1740 ha        1 MOL      0.144399
     43 H6         -1.6530   -4.5140    1.2630 ha        1 MOL      0.176299
     44 H7          1.0700   -1.3640    5.4040 ha        1 MOL      0.147799
     45 H8          0.7760   -2.9100    4.4140 ha        1 MOL      0.129099
     46 H9          3.1380   -0.9610    4.2390 ha        1 MOL      0.145399
     47 H10         0.2480   -5.9860   -3.9800 h1        1 MOL      0.109599
     48 H11        -0.9330   -4.7610   -3.4780 h1        1 MOL      0.078199
     49 H12         0.0850   -7.0680   -1.6860 h1        1 MOL      0.080499
     50 H13         6.6560   -3.2270    4.3990 hc        1 MOL      0.034599
     51 H14         7.9960   -2.3270    5.1220 hc        1 MOL      0.050899
     52 H15         7.1470   -1.6630    3.7170 hc        1 MOL      0.025299
     53 H16         9.7600   -3.7550    0.8290 hc        1 MOL      0.040099
     54 H17         9.2990   -5.3230    1.5220 hc        1 MOL      0.058599
     55 H18         8.4680   -4.7140    0.0860 hc        1 MOL      0.045799
     56 H19         5.0180   -1.2600    2.3540 hx        1 MOL      0.117099
     57 H20         3.7510   -0.0560    2.0780 hx        1 MOL      0.116599
     58 H21         2.1350   -0.7800    0.3150 hx        1 MOL      0.121499
     59 H22         1.3990   -1.0660    1.8980 hx        1 MOL      0.106799
     60 H23         2.3910   -3.5670    2.7420 hx        1 MOL      0.107199
     61 H24         4.0660   -3.1340    3.1480 hx        1 MOL      0.103699
     62 H25        -1.5710   -8.9410   -1.2600 hc        1 MOL      0.087899
     63 H26        -2.8410   -7.8010   -0.8760 hc        1 MOL      0.095999
     64 H27        -2.6090   -6.6840   -3.0620 hc        1 MOL      0.079799
     65 H28        -1.3810   -7.8410   -3.5750 hc        1 MOL      0.083599
     66 H29         9.3440   -2.6060    3.0660 hc        1 MOL      0.049899
     67 H30         8.9190   -4.1610    3.7820 hc        1 MOL      0.066299
     68 H31         7.0550   -4.4110    2.1140 h1        1 MOL      0.080199
     69 H32         7.8080   -1.7010    1.3110 hn        1 MOL      0.322199
     70 H33         3.5870   -2.7310    0.9190 hn        1 MOL      0.459299
     71 H34         4.2000   -3.3250   -2.3050 ho        1 MOL      0.456799
     72 H35        -4.6750  -10.6530   -1.8280 ho        1 MOL      0.451799
@<TRIPOS>BOND
     1    1    2 ar  
     2    1    3 ar  
     3    2    4 ar  
     4    3    7 ar  
     5    4    9 ar  
     6    5    6 ar  
     7    5   10 ar  
     8    6   11 ar  
     9    7    9 ar  
    10    7   15 1   
    11    8   10 ar  
    12    8   12 ar  
    13    8   16 1   
    14    9   22 1   
    15   10   23 1   
    16   11   12 ar  
    17   11   35 1   
    18   12   34 1   
    19   13   14 2   
    20   14   24 1   
    21   15   29 1   
    22   15   31 2   
    23   16   32 2   
    24   16   36 1   
    25   17   25 1   
    26   17   33 2   
    27   17   37 1   
    28   18   19 1   
    29   18   34 1   
    30   19   26 1   
    31   19   35 1   
    32   20   27 1   
    33   21   28 1   
    34   22   30 1   
    35   23   30 1   
    36   24   30 1   
    37   25   26 1   
    38   27   28 1   
    39   28   29 1   
    40    1   38 1   
    41    2   39 1   
    42    3   40 1   
    43    4   41 1   
    44    5   42 1   
    45    6   43 1   
    46   13   44 1   
    47   13   45 1   
    48   14   46 1   
    49   18   47 1   
    50   18   48 1   
    51   19   49 1   
    52   20   50 1   
    53   20   51 1   
    54   20   52 1   
    55   21   53 1   
    56   21   54 1   
    57   21   55 1   
    58   22   56 1   
    59   22   57 1   
    60   23   58 1   
    61   23   59 1   
    62   24   60 1   
    63   24   61 1   
    64   25   62 1   
    65   25   63 1   
    66   26   64 1   
    67   26   65 1   
    68   27   66 1   
    69   27   67 1   
    70   28   68 1   
    71   29   69 1   
    72   30   70 1   
    73   36   71 1   
    74   37   72 1   
@<TRIPOS>SUBSTRUCTURE
     1 MOL         1 TEMP              0 ****  ****    0 ROOT
