@<TRIPOS>MOLECULE
AVX38674_0
   59    62     1     0     0
SMALL
No Charge or Current Charge


@<TRIPOS>ATOM
      1 C1          4.3060    3.2840   -4.5400 ca        1 MOL     -0.127197
      2 C2          3.8350    0.9250    2.1360 ca        1 MOL     -0.128297
      3 C3          3.0640    3.8630   -4.2790 ca        1 MOL     -0.135397
      4 C4          4.4310    1.8960   -4.5960 ca        1 MOL     -0.135097
      5 C5          3.9380   -0.4160    1.7640 ca        1 MOL     -0.131097
      6 C6          2.7750    1.7000    1.6650 ca        1 MOL     -0.133097
      7 C7          1.9470    3.0530   -4.0730 ca        1 MOL     -0.115897
      8 C8          3.3140    1.0870   -4.3900 ca        1 MOL     -0.109597
      9 C9          2.9810   -0.9810    0.9210 ca        1 MOL     -0.097697
     10 C10         1.8190    1.1350    0.8230 ca        1 MOL     -0.116697
     11 C11         0.3410   -4.8040    3.7110 ca        1 MOL     -0.136297
     12 C12         1.0260   -5.4810    4.7230 ca        1 MOL     -0.151297
     13 C13        -0.7450   -6.8670    3.0070 ca        1 MOL     -0.062097
     14 C14         2.0720    1.6650   -4.1290 ca        1 MOL     -0.120097
     15 C15         1.9210   -0.2050    0.4500 ca        1 MOL     -0.098597
     16 C16        -0.5400   -5.4930    2.8580 ca        1 MOL     -0.113597
     17 C17         0.8060   -6.8370    4.8480 ca        1 MOL      0.039703
     18 C18        -0.0560   -7.5110    4.0130 ca        1 MOL      0.058803
     19 C19        -1.6610   -7.6100    2.1280 c         1 MOL      0.921203
     20 C20         1.2680   -0.6740   -1.9310 c         1 MOL      0.645403
     21 C21        -0.2660   -2.6770    0.7170 c         1 MOL      0.761603
     22 C22         0.7850   -8.9240    5.4210 c3        1 MOL      0.318903
     23 C23         0.5470   -4.9680    0.1090 c3        1 MOL      0.048203
     24 C24         0.8700    0.7930   -3.9070 c3        1 MOL      0.132503
     25 C25        -1.2540   -4.7210    1.7860 c3        1 MOL      0.130903
     26 C26         0.8840   -0.8170   -0.4630 c3        1 MOL      0.105103
     27 N1          0.7000    0.4510   -2.5130 n         1 MOL     -0.556197
     28 N2          0.6840   -2.2230   -0.1940 n         1 MOL     -0.571897
     29 N3         -0.3220   -4.0750    0.8650 n         1 MOL     -0.436497
     30 O1         -2.8980   -7.7200    2.4720 o         1 MOL     -0.799697
     31 O2         -1.1980   -8.1270    1.0440 o         1 MOL     -0.823297
     32 O3          1.9680   -1.4960   -2.5200 o         1 MOL     -0.611097
     33 O4         -0.9930   -1.9030    1.3470 o         1 MOL     -0.655697
     34 O5          1.3810   -7.6580    5.7690 os        1 MOL     -0.357797
     35 O6         -0.1280   -8.8380    4.3070 os        1 MOL     -0.313397
     36 H1          5.1760    3.9150   -4.7020 ha        1 MOL      0.126403
     37 H2          4.5800    1.3640    2.7940 ha        1 MOL      0.124803
     38 H3          2.9670    4.9440   -4.2370 ha        1 MOL      0.129103
     39 H4          5.3980    1.4450   -4.8000 ha        1 MOL      0.129703
     40 H5          4.7620   -1.0200    2.1320 ha        1 MOL      0.130303
     41 H6          2.6950    2.7430    1.9560 ha        1 MOL      0.125803
     42 H7          0.9840    3.5130   -3.8700 ha        1 MOL      0.134903
     43 H8          3.4210    0.0060   -4.4350 ha        1 MOL      0.145603
     44 H9          3.0690   -2.0260    0.6360 ha        1 MOL      0.140303
     45 H10         0.9960    1.7470    0.4600 ha        1 MOL      0.130403
     46 H11         0.4940   -3.7340    3.5890 ha        1 MOL      0.124903
     47 H12         1.7060   -4.9540    5.3820 ha        1 MOL      0.130803
     48 H13         1.5840   -9.6290    5.1650 h2        1 MOL      0.050103
     49 H14         0.2410   -9.3080    6.2920 h2        1 MOL      0.051003
     50 H15         1.4730   -5.1470    0.6610 h1        1 MOL      0.010803
     51 H16         0.7940   -4.5250   -0.8590 h1        1 MOL      0.028403
     52 H17         0.0480   -5.9260   -0.0610 h1        1 MOL      0.119903
     53 H18        -0.0410    1.2990   -4.2430 h1        1 MOL      0.060103
     54 H19         0.9520   -0.1400   -4.4730 h1        1 MOL      0.069103
     55 H20        -1.9030   -5.3820    1.2020 h1        1 MOL      0.099103
     56 H21        -1.8890   -3.9420    2.2200 h1        1 MOL      0.083203
     57 H22        -0.0930   -0.3450   -0.3040 h1        1 MOL      0.105203
     58 H23         0.1330    1.0730   -1.9450 hn        1 MOL      0.308203
     59 H24         1.2540   -2.9010   -0.6850 hn        1 MOL      0.317103
@<TRIPOS>BOND
     1    1    3 ar  
     2    1    4 ar  
     3    2    5 ar  
     4    2    6 ar  
     5    3    7 ar  
     6    4    8 ar  
     7    5    9 ar  
     8    6   10 ar  
     9    7   14 ar  
    10    8   14 ar  
    11    9   15 ar  
    12   10   15 ar  
    13   11   12 ar  
    14   11   16 ar  
    15   12   17 ar  
    16   13   16 ar  
    17   13   18 ar  
    18   13   19 1   
    19   14   24 1   
    20   15   26 1   
    21   16   25 1   
    22   17   18 ar  
    23   17   34 1   
    24   18   35 1   
    25   19   30 1   
    26   19   31 1   
    27   20   26 1   
    28   20   27 1   
    29   20   32 2   
    30   21   28 1   
    31   21   29 1   
    32   21   33 2   
    33   22   34 1   
    34   22   35 1   
    35   23   29 1   
    36   24   27 1   
    37   25   29 1   
    38   26   28 1   
    39    1   36 1   
    40    2   37 1   
    41    3   38 1   
    42    4   39 1   
    43    5   40 1   
    44    6   41 1   
    45    7   42 1   
    46    8   43 1   
    47    9   44 1   
    48   10   45 1   
    49   11   46 1   
    50   12   47 1   
    51   22   48 1   
    52   22   49 1   
    53   23   50 1   
    54   23   51 1   
    55   23   52 1   
    56   24   53 1   
    57   24   54 1   
    58   25   55 1   
    59   25   56 1   
    60   26   57 1   
    61   27   58 1   
    62   28   59 1   
@<TRIPOS>SUBSTRUCTURE
     1 MOL         1 TEMP              0 ****  ****    0 ROOT
