@<TRIPOS>MOLECULE
AVX38673_1
   58    60     1     0     0
SMALL
No Charge or Current Charge


@<TRIPOS>ATOM
      1 C1          3.8350    0.9250    2.1360 ca        1 MOL     -0.127104
      2 C2          3.9380   -0.4160    1.7640 ca        1 MOL     -0.130404
      3 C3          2.7750    1.7000    1.6650 ca        1 MOL     -0.133703
      4 C4          2.9810   -0.9810    0.9210 ca        1 MOL     -0.098703
      5 C5          1.8190    1.1350    0.8230 ca        1 MOL     -0.116304
      6 C6          0.3410   -4.8040    3.7110 ca        1 MOL     -0.137803
      7 C7          1.0260   -5.4810    4.7230 ca        1 MOL     -0.151504
      8 C8         -0.7450   -6.8670    3.0070 ca        1 MOL     -0.062003
      9 C9          1.9210   -0.2050    0.4500 ca        1 MOL     -0.097103
     10 C10        -0.5400   -5.4930    2.8580 ca        1 MOL     -0.113403
     11 C11         0.8060   -6.8370    4.8480 ca        1 MOL      0.038897
     12 C12        -0.0560   -7.5110    4.0130 ca        1 MOL      0.058897
     13 C13        -1.6610   -7.6100    2.1280 c         1 MOL      0.921397
     14 C14         1.2680   -0.6740   -1.9310 c         1 MOL      0.643896
     15 C15        -0.2660   -2.6770    0.7170 c         1 MOL      0.763896
     16 C16         0.7850   -8.9240    5.4210 c3        1 MOL      0.318196
     17 C17         3.2760    3.8280   -3.5700 c3        1 MOL     -0.091703
     18 C18         0.5470   -4.9680    0.1090 c3        1 MOL      0.049697
     19 C19        -1.2540   -4.7210    1.7860 c3        1 MOL      0.130297
     20 C20         2.0220    2.9930   -3.3620 c3        1 MOL     -0.080403
     21 C21         2.0890    1.6790   -4.1440 c3        1 MOL     -0.110303
     22 C22         0.8700    0.7930   -3.9070 c3        1 MOL      0.090096
     23 C23         0.8840   -0.8170   -0.4630 c3        1 MOL      0.106097
     24 N1          0.7000    0.4510   -2.5130 n         1 MOL     -0.559303
     25 N2          0.6840   -2.2230   -0.1940 n         1 MOL     -0.572803
     26 N3         -0.3220   -4.0750    0.8650 n         1 MOL     -0.438903
     27 O1         -2.8980   -7.7200    2.4720 o         1 MOL     -0.798304
     28 O2         -1.1980   -8.1270    1.0440 o         1 MOL     -0.823203
     29 O3          1.9680   -1.4960   -2.5200 o         1 MOL     -0.610903
     30 O4         -0.9930   -1.9030    1.3470 o         1 MOL     -0.650103
     31 O5          1.3810   -7.6580    5.7690 os        1 MOL     -0.357703
     32 O6         -0.1280   -8.8380    4.3070 os        1 MOL     -0.312103
     33 H1          4.5800    1.3640    2.7940 ha        1 MOL      0.126697
     34 H2          4.7620   -1.0200    2.1320 ha        1 MOL      0.128697
     35 H3          2.6950    2.7430    1.9560 ha        1 MOL      0.124396
     36 H4          3.0690   -2.0260    0.6360 ha        1 MOL      0.140197
     37 H5          0.9960    1.7470    0.4600 ha        1 MOL      0.129697
     38 H6          0.4940   -3.7340    3.5890 ha        1 MOL      0.123297
     39 H7          1.7060   -4.9540    5.3820 ha        1 MOL      0.130397
     40 H8          1.5840   -9.6290    5.1650 h2        1 MOL      0.050297
     41 H9          0.2410   -9.3080    6.2920 h2        1 MOL      0.051097
     42 H10         3.4230    4.0550   -4.6310 hc        1 MOL      0.034896
     43 H11         3.1950    4.7750   -3.0270 hc        1 MOL      0.029797
     44 H12         4.1630    3.3010   -3.2040 hc        1 MOL      0.032097
     45 H13         1.4730   -5.1470    0.6610 h1        1 MOL      0.011297
     46 H14         0.7940   -4.5250   -0.8590 h1        1 MOL      0.030497
     47 H15         0.0480   -5.9260   -0.0610 h1        1 MOL      0.111197
     48 H16        -1.9030   -5.3820    1.2020 h1        1 MOL      0.092197
     49 H17        -1.8890   -3.9420    2.2200 h1        1 MOL      0.089596
     50 H18         1.9030    2.7830   -2.2920 hc        1 MOL      0.035997
     51 H19         1.1500    3.5780   -3.6770 hc        1 MOL      0.038597
     52 H20         2.1890    1.8940   -5.2150 hc        1 MOL      0.052097
     53 H21         2.9860    1.1260   -3.8400 hc        1 MOL      0.050497
     54 H22         0.9400   -0.1400   -4.4760 h1        1 MOL      0.056297
     55 H23        -0.0390    1.3160   -4.2200 h1        1 MOL      0.056697
     56 H24        -0.0930   -0.3450   -0.3040 h1        1 MOL      0.102297
     57 H25         0.1330    1.0730   -1.9450 hn        1 MOL      0.305096
     58 H26         1.2540   -2.9010   -0.6850 hn        1 MOL      0.318497
@<TRIPOS>BOND
     1    1    2 ar  
     2    1    3 ar  
     3    2    4 ar  
     4    3    5 ar  
     5    4    9 ar  
     6    5    9 ar  
     7    6    7 ar  
     8    6   10 ar  
     9    7   11 ar  
    10    8   10 ar  
    11    8   12 ar  
    12    8   13 1   
    13    9   23 1   
    14   10   19 1   
    15   11   12 ar  
    16   11   31 1   
    17   12   32 1   
    18   13   27 1   
    19   13   28 1   
    20   14   23 1   
    21   14   24 1   
    22   14   29 2   
    23   15   25 1   
    24   15   26 1   
    25   15   30 2   
    26   16   31 1   
    27   16   32 1   
    28   17   20 1   
    29   18   26 1   
    30   19   26 1   
    31   20   21 1   
    32   21   22 1   
    33   22   24 1   
    34   23   25 1   
    35    1   33 1   
    36    2   34 1   
    37    3   35 1   
    38    4   36 1   
    39    5   37 1   
    40    6   38 1   
    41    7   39 1   
    42   16   40 1   
    43   16   41 1   
    44   17   42 1   
    45   17   43 1   
    46   17   44 1   
    47   18   45 1   
    48   18   46 1   
    49   18   47 1   
    50   19   48 1   
    51   19   49 1   
    52   20   50 1   
    53   20   51 1   
    54   21   52 1   
    55   21   53 1   
    56   22   54 1   
    57   22   55 1   
    58   23   56 1   
    59   24   57 1   
    60   25   58 1   
@<TRIPOS>SUBSTRUCTURE
     1 MOL         1 TEMP              0 ****  ****    0 ROOT
