@<TRIPOS>MOLECULE
GL5243-100_0
   53    55     1     0     0
SMALL
No Charge or Current Charge


@<TRIPOS>ATOM
      1 C1         -2.2650    1.6460   -2.7310 ca        1 MOL     -0.141604
      2 C2         -2.4030    2.8520   -3.4230 ca        1 MOL     -0.141404
      3 C3          3.9200   -2.2720   -1.4290 cc        1 MOL     -0.177404
      4 C4          4.5710   -2.8140   -2.5150 cd        1 MOL     -0.175104
      5 C5          4.8500   -0.5940   -2.6070 cd        1 MOL     -0.151304
      6 C6         -3.1940    2.6470   -0.7160 ca        1 MOL     -0.069304
      7 C7         -2.6590    1.5440   -1.3850 ca        1 MOL     -0.073104
      8 C8          4.0960   -0.8680   -1.4870 cc        1 MOL     -0.145204
      9 C9         -2.9350    3.9250   -2.7390 ca        1 MOL      0.031896
     10 C10        -3.3200    3.8260   -1.4210 ca        1 MOL      0.063196
     11 C11        -3.6140    2.5660    0.6930 c         1 MOL      0.921296
     12 C12         2.1830    0.6600   -0.8670 c         1 MOL      0.653096
     13 C13        -3.7030    5.8450   -2.0990 c3        1 MOL      0.319496
     14 C14        -1.1430   -3.0780   -2.0430 c3        1 MOL     -0.092104
     15 C15        -1.5340   -4.1010    0.2070 c3        1 MOL     -0.088004
     16 C16         3.5610    0.1410   -0.5050 c3        1 MOL     -0.077404
     17 C17        -2.4890    0.2190   -0.6810 c3        1 MOL     -0.030504
     18 C18        -0.9360   -1.6640    0.0720 c3        1 MOL     -0.067904
     19 C19        -0.1280    0.7810    0.0350 c3        1 MOL      0.077996
     20 C20        -1.6700   -2.8250   -0.6300 c3        1 MOL     -0.069104
     21 C21        -1.0240   -0.2830   -0.6240 c3        1 MOL     -0.084304
     22 N1          5.1320   -1.7840   -3.2240 na        1 MOL     -0.182904
     23 N2          1.2520    0.3900    0.1310 n         1 MOL     -0.554904
     24 O1         -4.8280    2.2270    0.9590 o         1 MOL     -0.814904
     25 O2         -2.7540    2.8370    1.6130 o         1 MOL     -0.823304
     26 O3          1.9350    1.2480   -1.9160 o         1 MOL     -0.606004
     27 O4         -3.1440    5.1710   -3.2450 os        1 MOL     -0.358104
     28 O5         -3.8180    4.9960   -0.9380 os        1 MOL     -0.315704
     29 H1         -1.8500    0.7830   -3.2460 ha        1 MOL      0.119796
     30 H2         -2.1020    2.9350   -4.4610 ha        1 MOL      0.127796
     31 H3          3.3780   -2.8330   -0.6800 ha        1 MOL      0.153696
     32 H4          4.6830   -3.8360   -2.8480 h4        1 MOL      0.158196
     33 H5          5.2100    0.3380   -3.0200 h4        1 MOL      0.166496
     34 H6         -3.0630    6.6980   -1.8470 h2        1 MOL      0.047896
     35 H7         -4.6990    6.2170   -2.3620 h2        1 MOL      0.047596
     36 H8         -0.0730   -3.3140   -2.0310 hc        1 MOL      0.023196
     37 H9         -1.6690   -3.9190   -2.5090 hc        1 MOL      0.018596
     38 H10        -1.2930   -2.2070   -2.6870 hc        1 MOL      0.058796
     39 H11        -0.4820   -4.3880    0.3110 hc        1 MOL      0.020996
     40 H12        -2.0610   -4.9360   -0.2670 hc        1 MOL      0.022996
     41 H13        -1.9490   -3.9640    1.2120 hc        1 MOL      0.030396
     42 H14         3.5180   -0.3080    0.4960 hc        1 MOL      0.053996
     43 H15         4.2500    0.9920   -0.4360 hc        1 MOL      0.065896
     44 H16        -3.1140   -0.5150   -1.2080 hc        1 MOL      0.043996
     45 H17        -2.9040    0.2840    0.3340 hc        1 MOL      0.077596
     46 H18        -1.3210   -1.5730    1.0960 hc        1 MOL      0.041896
     47 H19         0.1200   -1.9440    0.1720 hc        1 MOL      0.019196
     48 H20        -0.1590    1.7150   -0.5380 h1        1 MOL      0.096496
     49 H21        -0.4710    1.0180    1.0470 h1        1 MOL      0.072596
     50 H22        -2.7400   -2.5940   -0.6950 hc        1 MOL      0.058596
     51 H23        -0.6700   -0.3980   -1.6570 hc        1 MOL      0.064596
     52 H24         5.6700   -1.8860   -4.0740 hn        1 MOL      0.287996
     53 H25         1.5610   -0.1060    0.9650 hn        1 MOL      0.293296
@<TRIPOS>BOND
     1    1    2 ar  
     2    1    7 ar  
     3    2    9 ar  
     4    3    4 ar  
     5    3    8 ar  
     6    4   22 ar  
     7    5    8 ar  
     8    5   22 ar  
     9    6    7 ar  
    10    6   10 ar  
    11    6   11 1   
    12    7   17 1   
    13    8   16 1   
    14    9   10 ar  
    15    9   27 1   
    16   10   28 1   
    17   11   24 1   
    18   11   25 1   
    19   12   16 1   
    20   12   23 1   
    21   12   26 2   
    22   13   27 1   
    23   13   28 1   
    24   14   20 1   
    25   15   20 1   
    26   17   21 1   
    27   18   20 1   
    28   18   21 1   
    29   19   21 1   
    30   19   23 1   
    31    1   29 1   
    32    2   30 1   
    33    3   31 1   
    34    4   32 1   
    35    5   33 1   
    36   13   34 1   
    37   13   35 1   
    38   14   36 1   
    39   14   37 1   
    40   14   38 1   
    41   15   39 1   
    42   15   40 1   
    43   15   41 1   
    44   16   42 1   
    45   16   43 1   
    46   17   44 1   
    47   17   45 1   
    48   18   46 1   
    49   18   47 1   
    50   19   48 1   
    51   19   49 1   
    52   20   50 1   
    53   21   51 1   
    54   22   52 1   
    55   23   53 1   
@<TRIPOS>SUBSTRUCTURE
     1 MOL         1 TEMP              0 ****  ****    0 ROOT
