@<TRIPOS>MOLECULE
AVX101122_1
   61    63     1     0     0
SMALL
No Charge or Current Charge


@<TRIPOS>ATOM
      1 C1          5.3510   -0.9480   -1.7190 ca        1 MOL     -0.102497
      2 C2          5.0260   -1.2810   -3.0340 ca        1 MOL     -0.104097
      3 C3          0.6990   -5.7700   -0.7480 ca        1 MOL     -0.124497
      4 C4          4.3580   -0.5070   -0.8450 ca        1 MOL     -0.098197
      5 C5          3.7060   -1.1730   -3.4740 ca        1 MOL     -0.096797
      6 C6          1.0580   -4.6450   -1.4910 ca        1 MOL     -0.153197
      7 C7         -1.6220   -0.2580    1.3590 ca        1 MOL     -0.078497
      8 C8         -0.5630   -2.4280    1.4480 ca        1 MOL     -0.086697
      9 C9         -0.4610   -6.4760   -1.0660 ca        1 MOL     -0.169897
     10 C10        -2.8490   -0.8680    1.0990 ca        1 MOL     -0.178997
     11 C11        -1.7900   -3.0380    1.1880 ca        1 MOL     -0.182097
     12 C12         3.0390   -0.3990   -1.2850 ca        1 MOL     -0.113597
     13 C13        -0.9050   -4.9320   -2.8710 ca        1 MOL     -0.095197
     14 C14        -0.4790   -1.0380    1.5330 ca        1 MOL     -0.161797
     15 C15         2.7130   -0.7320   -2.5990 ca        1 MOL     -0.106397
     16 C16         0.2560   -4.2260   -2.5530 ca        1 MOL     -0.141097
     17 C17        -2.9330   -2.2580    1.0140 ca        1 MOL      0.136703
     18 C18        -1.2630   -6.0570   -2.1280 ca        1 MOL      0.135803
     19 C19         2.0220    0.0650   -0.3510 c         1 MOL      0.651903
     20 C20        -1.7590   -4.4910   -3.9920 c         1 MOL      0.914703
     21 C21        -1.0360   -1.3380   -2.6180 c3        1 MOL      0.080303
     22 C22        -4.1460   -4.2770    0.6870 c3        1 MOL      0.110903
     23 C23        -2.6790   -7.8950   -1.6070 c3        1 MOL      0.109203
     24 C24         0.8420   -0.3820    1.8130 c3        1 MOL      0.138403
     25 C25         1.3030   -0.6240   -3.0990 c3        1 MOL      0.153003
     26 C26         0.6650   -3.0130   -3.3340 c3        1 MOL      0.174603
     27 N1          1.8280   -0.6990    0.8050 n         1 MOL     -0.556897
     28 N2          0.4150   -1.7270   -2.5980 n4        1 MOL     -0.695797
     29 O1         -2.7060   -3.6550   -3.7510 o         1 MOL     -0.786297
     30 O2          1.3560    1.0840   -0.6010 o         1 MOL     -0.608597
     31 O3         -1.5240   -4.9590   -5.1660 o         1 MOL     -0.818397
     32 O4         -4.1310   -2.8530    0.7610 os        1 MOL     -0.321997
     33 O5         -2.3930   -6.7600   -2.4210 os        1 MOL     -0.307097
     34 H1          6.3790   -1.0320   -1.3760 ha        1 MOL      0.147103
     35 H2          5.7990   -1.6240   -3.7140 ha        1 MOL      0.149003
     36 H3          1.3240   -6.0960    0.0780 ha        1 MOL      0.129203
     37 H4          4.6250   -0.2490    0.1770 ha        1 MOL      0.150403
     38 H5          3.4630   -1.4350   -4.5000 ha        1 MOL      0.144303
     39 H6          1.9630   -4.1020   -1.2360 ha        1 MOL      0.116403
     40 H7         -1.5660    0.8250    1.4230 ha        1 MOL      0.136803
     41 H8          0.3230   -3.0440    1.5820 ha        1 MOL      0.134103
     42 H9         -0.7340   -7.3510   -0.4820 ha        1 MOL      0.139403
     43 H10        -3.7360   -0.2550    0.9640 ha        1 MOL      0.149503
     44 H11        -1.8490   -4.1200    1.1230 ha        1 MOL      0.147903
     45 H12        -1.3200   -1.1600   -3.6570 hx        1 MOL      0.091803
     46 H13        -1.6090   -2.1620   -2.1900 hx        1 MOL      0.133603
     47 H14        -1.1460   -0.4310   -2.0200 hx        1 MOL      0.077203
     48 H15        -5.1620   -4.6220    0.4810 h1        1 MOL      0.070503
     49 H16        -3.7930   -4.6960    1.6330 h1        1 MOL      0.034303
     50 H17        -3.4840   -4.5980   -0.1210 h1        1 MOL      0.037503
     51 H18        -3.6060   -8.3640   -1.9460 h1        1 MOL      0.068303
     52 H19        -2.7770   -7.5820   -0.5640 h1        1 MOL      0.033303
     53 H20        -1.8580   -8.6110   -1.6940 h1        1 MOL      0.032603
     54 H21         0.7330    0.7070    1.8480 h1        1 MOL      0.067203
     55 H22         1.2410   -0.7000    2.7830 h1        1 MOL      0.064203
     56 H23         0.8420    0.3180   -2.7850 hx        1 MOL      0.111103
     57 H24         1.2670   -0.6640   -4.1930 hx        1 MOL      0.100003
     58 H25         1.7340   -3.0360   -3.5700 hx        1 MOL      0.098503
     59 H26         0.1160   -2.9460   -4.2790 hx        1 MOL      0.109203
     60 H27         2.3560   -1.5560    0.9290 hn        1 MOL      0.328503
     61 H28         0.6660   -1.8910   -1.6140 hn        1 MOL      0.481103
@<TRIPOS>BOND
     1    1    2 ar  
     2    1    4 ar  
     3    2    5 ar  
     4    3    6 ar  
     5    3    9 ar  
     6    4   12 ar  
     7    5   15 ar  
     8    6   16 ar  
     9    7   10 ar  
    10    7   14 ar  
    11    8   11 ar  
    12    8   14 ar  
    13    9   18 ar  
    14   10   17 ar  
    15   11   17 ar  
    16   12   15 ar  
    17   12   19 1   
    18   13   16 ar  
    19   13   18 ar  
    20   13   20 1   
    21   14   24 1   
    22   15   25 1   
    23   16   26 1   
    24   17   32 1   
    25   18   33 1   
    26   19   27 1   
    27   19   30 2   
    28   20   29 1   
    29   20   31 1   
    30   21   28 1   
    31   22   32 1   
    32   23   33 1   
    33   24   27 1   
    34   25   28 1   
    35   26   28 1   
    36    1   34 1   
    37    2   35 1   
    38    3   36 1   
    39    4   37 1   
    40    5   38 1   
    41    6   39 1   
    42    7   40 1   
    43    8   41 1   
    44    9   42 1   
    45   10   43 1   
    46   11   44 1   
    47   21   45 1   
    48   21   46 1   
    49   21   47 1   
    50   22   48 1   
    51   22   49 1   
    52   22   50 1   
    53   23   51 1   
    54   23   52 1   
    55   23   53 1   
    56   24   54 1   
    57   24   55 1   
    58   25   56 1   
    59   25   57 1   
    60   26   58 1   
    61   26   59 1   
    62   27   60 1   
    63   28   61 1   
@<TRIPOS>SUBSTRUCTURE
     1 MOL         1 TEMP              0 ****  ****    0 ROOT
