@<TRIPOS>MOLECULE
GL5243-84_0
   56    59     1     0     0
SMALL
No Charge or Current Charge


@<TRIPOS>ATOM
      1 C1          2.0070    1.7310   -0.6800 ca        1 MOL     -0.142500
      2 C2          2.2400    0.4800   -1.2720 ca        1 MOL     -0.129800
      3 C3          0.8190    1.9810    0.0080 ca        1 MOL     -0.130300
      4 C4          1.2890   -0.5390   -1.1830 ca        1 MOL     -0.096900
      5 C5         -2.8160   -3.8510    0.6870 ca        1 MOL     -0.154700
      6 C6         -3.9380   -4.6570    0.4750 ca        1 MOL     -0.155100
      7 C7         -2.1910   -4.0290   -1.6590 ca        1 MOL     -0.068100
      8 C8         -0.1130    0.9600    0.1020 ca        1 MOL     -0.110200
      9 C9          0.1170   -0.2910   -0.4870 ca        1 MOL     -0.077600
     10 C10        -1.9480   -3.5390   -0.3740 ca        1 MOL     -0.083000
     11 C11        -4.1550   -5.1280   -0.8030 ca        1 MOL      0.043300
     12 C12        -3.3050   -4.8220   -1.8420 ca        1 MOL      0.069600
     13 C13        -1.2980   -3.7160   -2.7870 c         1 MOL      0.919400
     14 C14        -2.0870   -0.9670    3.3500 c         1 MOL      0.651800
     15 C15        -1.4590    1.0070    0.7600 c3        1 MOL     -0.053700
     16 C16        -4.8940   -6.0800   -2.6000 c3        1 MOL      0.317700
     17 C17        -1.0740   -1.1910   -0.2820 c3        1 MOL     -0.033600
     18 C18        -1.7710   -0.4970    0.9210 c3        1 MOL      0.102100
     19 C19        -0.7530   -2.6670   -0.0950 c3        1 MOL     -0.018900
     20 C20        -1.3420   -1.5500    4.5400 c3        1 MOL     -0.164900
     21 C21        -2.1600   -1.5680    5.8300 c3        1 MOL     -0.076000
     22 C22        -1.4070   -2.2280    6.9890 c3        1 MOL     -0.118700
     23 C23        -2.2380   -2.2010    8.2630 c3        1 MOL      0.104200
     24 N1         -1.3020   -0.9740    2.2080 n         1 MOL     -0.539900
     25 N2         -1.4920   -2.8890    9.3450 n4        1 MOL     -0.841000
     26 O1         -1.5390   -2.6670   -3.4950 o         1 MOL     -0.805600
     27 O2         -0.3070   -4.5010   -3.0290 o         1 MOL     -0.808700
     28 O3         -3.2460   -0.5670    3.4130 o         1 MOL     -0.622900
     29 O4         -5.1890   -5.9200   -1.1980 os        1 MOL     -0.356200
     30 O5         -3.7010   -5.3850   -3.0160 os        1 MOL     -0.306700
     31 H1          2.7570    2.5130   -0.7650 ha        1 MOL      0.121800
     32 H2          3.1680    0.3060   -1.8100 ha        1 MOL      0.131800
     33 H3          0.6340    2.9520    0.4540 ha        1 MOL      0.120200
     34 H4          1.4720   -1.4970   -1.6580 ha        1 MOL      0.168500
     35 H5         -2.6200   -3.4650    1.6850 ha        1 MOL      0.099200
     36 H6         -4.6090   -4.9000    1.2900 ha        1 MOL      0.123700
     37 H7         -1.4340    1.5380    1.7160 hc        1 MOL      0.043100
     38 H8         -2.1760    1.4850    0.0830 hc        1 MOL      0.072600
     39 H9         -4.7710   -7.1480   -2.8140 h2        1 MOL      0.057500
     40 H10        -5.7420   -5.7000   -3.1820 h2        1 MOL      0.058900
     41 H11        -1.7180   -1.0790   -1.1690 hc        1 MOL      0.129900
     42 H12        -2.8520   -0.6810    0.9100 h1        1 MOL      0.094500
     43 H13        -0.3990   -2.8400    0.9280 hc        1 MOL      0.007900
     44 H14         0.0750   -2.9510   -0.7550 hc        1 MOL      0.103000
     45 H15        -0.4080   -0.9950    4.6900 hc        1 MOL      0.072300
     46 H16        -1.0740   -2.5800    4.2750 hc        1 MOL      0.074600
     47 H17        -2.4540   -0.5490    6.1090 hc        1 MOL      0.071300
     48 H18        -3.0850   -2.1280    5.6460 hc        1 MOL      0.050800
     49 H19        -1.1660   -3.2660    6.7250 hc        1 MOL      0.075400
     50 H20        -0.4540   -1.7140    7.1610 hc        1 MOL      0.092100
     51 H21        -3.1870   -2.7330    8.1450 hx        1 MOL      0.112200
     52 H22        -2.4280   -1.1800    8.6080 hx        1 MOL      0.111700
     53 H23        -0.3480   -1.3140    2.2590 hn        1 MOL      0.312900
     54 H24        -1.6940   -3.8940    9.3480 hn        1 MOL      0.460500
     55 H25        -1.7480   -2.5120   10.2640 hn        1 MOL      0.457600
     56 H26        -0.4800   -2.7700    9.2260 hn        1 MOL      0.462900
@<TRIPOS>BOND
     1    1    2 ar  
     2    1    3 ar  
     3    2    4 ar  
     4    3    8 ar  
     5    4    9 ar  
     6    5    6 ar  
     7    5   10 ar  
     8    6   11 ar  
     9    7   10 ar  
    10    7   12 ar  
    11    7   13 1   
    12    8    9 ar  
    13    8   15 1   
    14    9   17 1   
    15   10   19 1   
    16   11   12 ar  
    17   11   29 1   
    18   12   30 1   
    19   13   26 1   
    20   13   27 1   
    21   14   20 1   
    22   14   24 1   
    23   14   28 2   
    24   15   18 1   
    25   16   29 1   
    26   16   30 1   
    27   17   18 1   
    28   17   19 1   
    29   18   24 1   
    30   20   21 1   
    31   21   22 1   
    32   22   23 1   
    33   23   25 1   
    34    1   31 1   
    35    2   32 1   
    36    3   33 1   
    37    4   34 1   
    38    5   35 1   
    39    6   36 1   
    40   15   37 1   
    41   15   38 1   
    42   16   39 1   
    43   16   40 1   
    44   17   41 1   
    45   18   42 1   
    46   19   43 1   
    47   19   44 1   
    48   20   45 1   
    49   20   46 1   
    50   21   47 1   
    51   21   48 1   
    52   22   49 1   
    53   22   50 1   
    54   23   51 1   
    55   23   52 1   
    56   24   53 1   
    57   25   54 1   
    58   25   55 1   
    59   25   56 1   
@<TRIPOS>SUBSTRUCTURE
     1 MOL         1 TEMP              0 ****  ****    0 ROOT
