@<TRIPOS>MOLECULE
AVX38779_0
   70    72     1     0     0
SMALL
No Charge or Current Charge


@<TRIPOS>ATOM
      1 C1          4.9870    0.8850   -2.1710 ca        1 MOL     -0.106503
      2 C2          5.4920   -0.3830   -1.8840 ca        1 MOL     -0.101803
      3 C3          4.2370    1.5700   -1.2150 ca        1 MOL     -0.101703
      4 C4          5.2480   -0.9660   -0.6410 ca        1 MOL     -0.090903
      5 C5         -0.1340   -2.7320    1.8470 ca        1 MOL     -0.128303
      6 C6         -1.0880   -3.7450    1.7460 ca        1 MOL     -0.150203
      7 C7          3.9920    0.9870    0.0280 ca        1 MOL     -0.108403
      8 C8          0.9780   -3.5730   -0.1280 ca        1 MOL     -0.078303
      9 C9          4.4980   -0.2810    0.3150 ca        1 MOL     -0.095603
     10 C10         0.9000   -2.6490    0.9140 ca        1 MOL     -0.184903
     11 C11        -1.0020   -4.6780    0.7120 ca        1 MOL      0.095697
     12 C12         0.0170   -4.5780   -0.2370 ca        1 MOL      0.075097
     13 C13         4.9360   -2.8890    4.5710 c2        1 MOL     -0.170703
     14 C14         4.3720   -3.2720    3.4200 c2        1 MOL     -0.212803
     15 C15         3.2060    1.7230    1.0080 c         1 MOL      0.658697
     16 C16         2.0700   -3.4760   -1.1190 c         1 MOL      0.918297
     17 C17        -4.4980   -9.1760    0.8240 c         1 MOL      0.910497
     18 C18        -1.0650   -6.1930   -1.5070 c3        1 MOL      0.087197
     19 C19        -1.5830   -6.7440   -0.1850 c3        1 MOL      0.098597
     20 C20         0.7430    4.6380   -0.2620 c3        1 MOL     -0.092303
     21 C21         0.2470    1.8600    2.4110 c3        1 MOL     -0.114503
     22 C22         4.2500   -0.9320    1.6440 c3        1 MOL      0.156497
     23 C23         1.9100   -1.5570    1.0570 c3        1 MOL      0.185397
     24 C24         3.0770   -2.7330    2.9060 c3        1 MOL      0.143597
     25 C25        -3.2850   -8.2420    0.9050 c3        1 MOL     -0.197703
     26 C26        -2.8130   -7.6160   -0.3930 c3        1 MOL     -0.054403
     27 C27         0.0300    3.6670    0.6700 c3        1 MOL     -0.093003
     28 C28         1.0050    2.8160    1.4940 c3        1 MOL      0.098697
     29 N1          1.9000    2.0670    0.6420 n         1 MOL     -0.560403
     30 N2          3.2200   -2.0310    1.5800 n4        1 MOL     -0.707303
     31 O1          1.8810   -2.7660   -2.1730 o         1 MOL     -0.754303
     32 O2         -4.8850   -9.6920    1.9080 o         1 MOL     -0.848603
     33 O3          3.7010    2.0390    2.1030 o         1 MOL     -0.609103
     34 O4          3.1660   -4.1070   -0.8880 o         1 MOL     -0.869903
     35 O5         -4.9760   -9.3040   -0.3410 o         1 MOL     -0.852303
     36 O6          0.1350   -5.4430   -1.2940 os        1 MOL     -0.296103
     37 O7         -1.9550   -5.6610    0.6780 os        1 MOL     -0.302103
     38 H1          5.1770    1.3400   -3.1390 ha        1 MOL      0.139297
     39 H2          6.0760   -0.9160   -2.6290 ha        1 MOL      0.143097
     40 H3          3.8480    2.5570   -1.4520 ha        1 MOL      0.142197
     41 H4          5.6470   -1.9540   -0.4270 ha        1 MOL      0.146197
     42 H5         -0.2040   -2.0130    2.6600 ha        1 MOL      0.110897
     43 H6         -1.8830   -3.8090    2.4830 ha        1 MOL      0.151797
     44 H7          5.8820   -3.3140    4.8880 ha        1 MOL      0.125697
     45 H8          4.4690   -2.1500    5.2130 ha        1 MOL      0.122897
     46 H9          4.8840   -4.0120    2.8100 ha        1 MOL      0.141097
     47 H10        -0.8230   -7.0070   -2.1990 h1        1 MOL      0.085197
     48 H11        -1.8000   -5.5390   -1.9940 h1        1 MOL      0.059097
     49 H12        -0.8050   -7.3300    0.3230 h1        1 MOL      0.059697
     50 H13         1.4000    4.1130   -0.9620 hc        1 MOL      0.032297
     51 H14         0.0110    5.2010   -0.8500 hc        1 MOL      0.033097
     52 H15         1.3450    5.3560    0.3040 hc        1 MOL      0.040397
     53 H16        -0.3940    1.1880    1.8330 hc        1 MOL      0.039897
     54 H17         0.9370    1.2500    3.0060 hc        1 MOL      0.045797
     55 H18        -0.3880    2.4150    3.1110 hc        1 MOL      0.043397
     56 H19         5.1660   -1.3830    2.0410 hx        1 MOL      0.103697
     57 H20         3.8890   -0.2050    2.3790 hx        1 MOL      0.104897
     58 H21         2.1180   -1.0740    0.0930 hx        1 MOL      0.125497
     59 H22         1.5640   -0.7770    1.7480 hx        1 MOL      0.065997
     60 H23         2.6720   -1.9940    3.6040 hx        1 MOL      0.092497
     61 H24         2.3290   -3.5180    2.7570 hx        1 MOL      0.104397
     62 H25        -2.4600   -8.8480    1.3020 hc        1 MOL      0.021597
     63 H26        -3.4950   -7.4620    1.6470 hc        1 MOL      0.035997
     64 H27        -3.5880   -7.0060   -0.8540 hc        1 MOL      0.064297
     65 H28        -2.5370   -8.3970   -1.1000 hc        1 MOL      0.061497
     66 H29        -0.6110    4.2460    1.3460 hc        1 MOL      0.049697
     67 H30        -0.6280    3.0220    0.0750 hc        1 MOL      0.047097
     68 H31         1.6340    3.4700    2.1090 h1        1 MOL      0.080297
     69 H32         1.5680    1.8380   -0.2890 hn        1 MOL      0.327897
     70 H33         3.5870   -2.7330    0.9170 hn        1 MOL      0.506497
@<TRIPOS>BOND
     1    1    2 ar  
     2    1    3 ar  
     3    2    4 ar  
     4    3    7 ar  
     5    4    9 ar  
     6    5    6 ar  
     7    5   10 ar  
     8    6   11 ar  
     9    7    9 ar  
    10    7   15 1   
    11    8   10 ar  
    12    8   12 ar  
    13    8   16 1   
    14    9   22 1   
    15   10   23 1   
    16   11   12 ar  
    17   11   37 1   
    18   12   36 1   
    19   13   14 2   
    20   14   24 1   
    21   15   29 1   
    22   15   33 2   
    23   16   31 1   
    24   16   34 1   
    25   17   25 1   
    26   17   32 1   
    27   17   35 1   
    28   18   19 1   
    29   18   36 1   
    30   19   26 1   
    31   19   37 1   
    32   20   27 1   
    33   21   28 1   
    34   22   30 1   
    35   23   30 1   
    36   24   30 1   
    37   25   26 1   
    38   27   28 1   
    39   28   29 1   
    40    1   38 1   
    41    2   39 1   
    42    3   40 1   
    43    4   41 1   
    44    5   42 1   
    45    6   43 1   
    46   13   44 1   
    47   13   45 1   
    48   14   46 1   
    49   18   47 1   
    50   18   48 1   
    51   19   49 1   
    52   20   50 1   
    53   20   51 1   
    54   20   52 1   
    55   21   53 1   
    56   21   54 1   
    57   21   55 1   
    58   22   56 1   
    59   22   57 1   
    60   23   58 1   
    61   23   59 1   
    62   24   60 1   
    63   24   61 1   
    64   25   62 1   
    65   25   63 1   
    66   26   64 1   
    67   26   65 1   
    68   27   66 1   
    69   27   67 1   
    70   28   68 1   
    71   29   69 1   
    72   30   70 1   
@<TRIPOS>SUBSTRUCTURE
     1 MOL         1 TEMP              0 ****  ****    0 ROOT
