@<TRIPOS>MOLECULE
AVX38788_1
   67    70     1     0     0
SMALL
No Charge or Current Charge


@<TRIPOS>ATOM
      1 C1         -0.5320   -3.6320   -1.6430 ca        1 MOL     -0.111197
      2 C2         -1.0780   -3.0700   -0.4880 ca        1 MOL     -0.106497
      3 C3         -1.2420   -4.6030   -2.3490 ca        1 MOL     -0.095497
      4 C4         -2.3340   -3.4790   -0.0410 ca        1 MOL     -0.107797
      5 C5         -4.7900   -8.9840    2.0790 ca        1 MOL     -0.131097
      6 C6         -4.6730   -9.8250    3.1850 ca        1 MOL     -0.147597
      7 C7         -2.4980   -5.0120   -1.9010 ca        1 MOL     -0.101997
      8 C8         -2.6600   -7.9730    2.6130 ca        1 MOL     -0.084597
      9 C9         -3.0440   -4.4500   -0.7470 ca        1 MOL     -0.086697
     10 C10        -3.7880   -8.0550    1.7960 ca        1 MOL     -0.173197
     11 C11        -3.5510   -9.7340    4.0100 ca        1 MOL      0.093503
     12 C12        -2.5350   -8.8240    3.7110 ca        1 MOL      0.077203
     13 C13        -3.2180   -6.0280   -2.6570 c         1 MOL      0.662103
     14 C14        -1.5970   -6.9950    2.3050 c         1 MOL      0.916903
     15 C15        -3.5210  -12.6910    8.8810 c         1 MOL      0.910603
     16 C16        -4.3720  -11.2420   -2.0700 cy        1 MOL     -0.093297
     17 C17        -3.2340  -10.2380   -1.7910 cy        1 MOL     -0.088797
     18 C18        -4.6580  -10.4440   -3.3590 cy        1 MOL     -0.091397
     19 C19        -1.2110   -9.8350    5.3280 c3        1 MOL      0.087703
     20 C20        -4.0170   -9.2280   -2.6560 cy        1 MOL     -0.112997
     21 C21        -2.5120  -10.1650    6.0470 c3        1 MOL      0.099003
     22 C22        -5.5790   -5.6920    1.7900 c3        1 MOL      0.095003
     23 C23        -4.3920   -4.8720   -0.2420 c3        1 MOL      0.164503
     24 C24        -3.9500   -7.1620    0.6090 c3        1 MOL      0.189403
     25 C25        -3.5910  -11.5850    7.8220 c3        1 MOL     -0.197897
     26 C26        -3.1700   -8.3730   -3.5360 c3        1 MOL      0.100903
     27 C27        -2.3250  -11.3060    7.0360 c3        1 MOL     -0.055097
     28 N1         -2.5950   -7.2730   -2.7960 n         1 MOL     -0.551897
     29 N2         -4.3170   -5.7660    0.9690 n4        1 MOL     -0.733297
     30 O1         -0.6330   -7.3570    1.5340 o         1 MOL     -0.742697
     31 O2         -4.5800  -12.9170    9.5290 o         1 MOL     -0.847797
     32 O3         -4.3230   -5.7700   -3.1630 o         1 MOL     -0.621397
     33 O4         -1.6750   -5.8200    2.8190 o         1 MOL     -0.820197
     34 O5         -2.3940  -13.2580    8.9650 o         1 MOL     -0.852297
     35 O6         -1.3950   -8.7100    4.4630 os        1 MOL     -0.298097
     36 O7         -3.5020  -10.5730    5.0920 os        1 MOL     -0.302197
     37 H1          0.4460   -3.3140   -1.9920 ha        1 MOL      0.140903
     38 H2         -0.5240   -2.3140    0.0610 ha        1 MOL      0.142303
     39 H3         -0.8050   -5.0340   -3.2460 ha        1 MOL      0.145403
     40 H4         -2.7500   -3.0340    0.8600 ha        1 MOL      0.139603
     41 H5         -5.6710   -9.0560    1.4450 ha        1 MOL      0.113803
     42 H6         -5.4630  -10.5380    3.4040 ha        1 MOL      0.152603
     43 H7         -4.0290  -12.2680   -2.2480 hc        1 MOL      0.052003
     44 H8         -5.1800  -11.2610   -1.3340 hc        1 MOL      0.051303
     45 H9         -3.1540   -9.9470   -0.7370 hc        1 MOL      0.053203
     46 H10        -2.2450  -10.5300   -2.1520 hc        1 MOL      0.056503
     47 H11        -4.1600  -10.8060   -4.2620 hc        1 MOL      0.054103
     48 H12        -5.7260  -10.3170   -3.5700 hc        1 MOL      0.049703
     49 H13        -0.4270   -9.5710    6.0460 h1        1 MOL      0.085803
     50 H14        -0.8500  -10.6790    4.7260 h1        1 MOL      0.058903
     51 H15        -4.7280   -8.6160   -2.0910 hc        1 MOL      0.061403
     52 H16        -2.8960   -9.2840    6.5780 h1        1 MOL      0.060503
     53 H17        -6.3960   -6.0880    1.1840 hx        1 MOL      0.061303
     54 H18        -5.4290   -6.2940    2.6880 hx        1 MOL      0.119203
     55 H19        -5.7510   -4.6440    2.0450 hx        1 MOL      0.078703
     56 H20        -4.9970   -4.0040    0.0440 hx        1 MOL      0.098303
     57 H21        -4.9460   -5.4260   -1.0080 hx        1 MOL      0.076703
     58 H22        -3.0230   -7.0990    0.0250 hx        1 MOL      0.096903
     59 H23        -4.7380   -7.5260   -0.0630 hx        1 MOL      0.070403
     60 H24        -3.8600  -10.6660    8.3580 hc        1 MOL      0.022003
     61 H25        -4.4190  -11.8100    7.1370 hc        1 MOL      0.035503
     62 H26        -3.7670   -7.9520   -4.3510 h1        1 MOL      0.061403
     63 H27        -2.3480   -8.9520   -3.9650 h1        1 MOL      0.062003
     64 H28        -1.9880  -12.1830    6.4850 hc        1 MOL      0.061903
     65 H29        -1.5260  -11.0130    7.7160 hc        1 MOL      0.064703
     66 H30        -1.6640   -7.4090   -2.4160 hn        1 MOL      0.323203
     67 H31        -3.5620   -5.3860    1.5640 hn        1 MOL      0.508403
@<TRIPOS>BOND
     1    1    2 ar  
     2    1    3 ar  
     3    2    4 ar  
     4    3    7 ar  
     5    4    9 ar  
     6    5    6 ar  
     7    5   10 ar  
     8    6   11 ar  
     9    7    9 ar  
    10    7   13 1   
    11    8   10 ar  
    12    8   12 ar  
    13    8   14 1   
    14    9   23 1   
    15   10   24 1   
    16   11   12 ar  
    17   11   36 1   
    18   12   35 1   
    19   13   28 1   
    20   13   32 2   
    21   14   30 1   
    22   14   33 1   
    23   15   25 1   
    24   15   31 1   
    25   15   34 1   
    26   16   17 1   
    27   16   18 1   
    28   17   20 1   
    29   18   20 1   
    30   19   21 1   
    31   19   35 1   
    32   20   26 1   
    33   21   27 1   
    34   21   36 1   
    35   22   29 1   
    36   23   29 1   
    37   24   29 1   
    38   25   27 1   
    39   26   28 1   
    40    1   37 1   
    41    2   38 1   
    42    3   39 1   
    43    4   40 1   
    44    5   41 1   
    45    6   42 1   
    46   16   43 1   
    47   16   44 1   
    48   17   45 1   
    49   17   46 1   
    50   18   47 1   
    51   18   48 1   
    52   19   49 1   
    53   19   50 1   
    54   20   51 1   
    55   21   52 1   
    56   22   53 1   
    57   22   54 1   
    58   22   55 1   
    59   23   56 1   
    60   23   57 1   
    61   24   58 1   
    62   24   59 1   
    63   25   60 1   
    64   25   61 1   
    65   26   62 1   
    66   26   63 1   
    67   27   64 1   
    68   27   65 1   
    69   28   66 1   
    70   29   67 1   
@<TRIPOS>SUBSTRUCTURE
     1 MOL         1 TEMP              0 ****  ****    0 ROOT
