@<TRIPOS>MOLECULE
AVX38749_0
   64    67     1     0     0
SMALL
No Charge or Current Charge


@<TRIPOS>ATOM
      1 C1          2.0070    1.7310   -0.6800 ca        1 MOL     -0.149006
      2 C2          2.2400    0.4800   -1.2720 ca        1 MOL     -0.132106
      3 C3          0.8190    1.9810    0.0080 ca        1 MOL     -0.132906
      4 C4          1.2890   -0.5390   -1.1830 ca        1 MOL     -0.096106
      5 C5         -2.8130   -3.8480    0.6770 ca        1 MOL     -0.158106
      6 C6         -3.9240   -4.6610    0.4520 ca        1 MOL     -0.167906
      7 C7         -2.1980   -4.0320   -1.6540 ca        1 MOL     -0.078706
      8 C8         -0.1130    0.9600    0.1020 ca        1 MOL     -0.112206
      9 C9          0.1170   -0.2910   -0.4870 ca        1 MOL     -0.068506
     10 C10        -1.9480   -3.5390   -0.3740 ca        1 MOL     -0.110506
     11 C11        -4.1670   -5.1660   -0.8250 ca        1 MOL      0.061394
     12 C12        -3.3170   -4.8340   -1.8830 ca        1 MOL      0.073694
     13 C13        -1.2860   -3.6950   -2.7660 c         1 MOL      0.921094
     14 C14        -2.0950   -0.9630    3.3440 c         1 MOL      0.653094
     15 C15        -8.2920   -9.0450   -1.4670 c         1 MOL      0.911294
     16 C16        -1.4590    1.0070    0.7600 c3        1 MOL     -0.051206
     17 C17        -4.8470   -5.7750   -3.3530 c3        1 MOL      0.089094
     18 C18        -1.0740   -1.1910   -0.2820 c3        1 MOL     -0.039706
     19 C19        -1.7710   -0.4970    0.9210 c3        1 MOL      0.102794
     20 C20        -5.2230   -6.7090   -2.2110 c3        1 MOL      0.102294
     21 C21        -0.7530   -2.6670   -0.0950 c3        1 MOL     -0.013606
     22 C22        -1.3510   -1.5160    4.5460 c3        1 MOL     -0.169006
     23 C23        -6.9440   -8.3250   -1.3410 c3        1 MOL     -0.191806
     24 C24        -6.5970   -7.3250   -2.4270 c3        1 MOL     -0.055906
     25 C25        -2.2030   -1.5140    5.8120 c3        1 MOL     -0.102806
     26 C26        -1.4140   -2.0360    7.0030 c3        1 MOL      0.096494
     27 N1         -1.3020   -0.9740    2.2080 n         1 MOL     -0.528306
     28 N2         -2.2930   -2.0590    8.1970 n4        1 MOL     -0.839506
     29 O1         -1.5260   -2.6400   -3.4600 o         1 MOL     -0.826206
     30 O2         -8.5740   -9.8740   -0.5580 o         1 MOL     -0.851506
     31 O3         -0.2860   -4.4700   -2.9970 o         1 MOL     -0.819406
     32 O4         -3.2540   -0.5600    3.3960 o         1 MOL     -0.626706
     33 O5         -8.9710   -8.7010   -2.4770 o         1 MOL     -0.865406
     34 O6         -3.5210   -5.2710   -3.1650 os        1 MOL     -0.291506
     35 O7         -5.2620   -5.9750   -0.9790 os        1 MOL     -0.319506
     36 H1          2.7570    2.5130   -0.7650 ha        1 MOL      0.116894
     37 H2          3.1680    0.3060   -1.8100 ha        1 MOL      0.126794
     38 H3          0.6340    2.9520    0.4540 ha        1 MOL      0.116394
     39 H4          1.4720   -1.4970   -1.6580 ha        1 MOL      0.173294
     40 H5         -2.6260   -3.4640    1.6760 ha        1 MOL      0.083194
     41 H6         -4.5860   -4.9060    1.2780 ha        1 MOL      0.125094
     42 H7         -1.4340    1.5380    1.7160 hc        1 MOL      0.038894
     43 H8         -2.1760    1.4850    0.0830 hc        1 MOL      0.071994
     44 H9         -4.8620   -6.3080   -4.3100 h1        1 MOL      0.077194
     45 H10        -5.5350   -4.9220   -3.4280 h1        1 MOL      0.048394
     46 H11        -1.7180   -1.0790   -1.1690 hc        1 MOL      0.142094
     47 H12        -2.8520   -0.6810    0.9100 h1        1 MOL      0.098394
     48 H13        -4.4790   -7.5110   -2.1040 h1        1 MOL      0.058694
     49 H14        -0.3990   -2.8400    0.9280 hc        1 MOL      0.000094
     50 H15         0.0750   -2.9510   -0.7550 hc        1 MOL      0.100994
     51 H16        -0.4510   -0.9080    4.7000 hc        1 MOL      0.068794
     52 H17        -1.0310   -2.5380    4.3110 hc        1 MOL      0.079594
     53 H18        -6.1770   -9.1090   -1.3530 hc        1 MOL      0.022794
     54 H19        -6.8960   -7.8440   -0.3560 hc        1 MOL      0.033294
     55 H20        -7.3260   -6.5180   -2.4840 hc        1 MOL      0.063594
     56 H21        -6.5760   -7.8250   -3.3950 hc        1 MOL      0.044494
     57 H22        -3.0960   -2.1330    5.6560 hc        1 MOL      0.092494
     58 H23        -2.5590   -0.4960    6.0160 hc        1 MOL      0.077794
     59 H24        -1.0640   -3.0610    6.8460 hx        1 MOL      0.118694
     60 H25        -0.5650   -1.3910    7.2470 hx        1 MOL      0.109594
     61 H26        -0.3420   -1.2920    2.2690 hn        1 MOL      0.316694
     62 H27        -2.0810   -2.8660    8.7940 hn        1 MOL      0.463694
     63 H28        -3.2800   -2.1200    7.9240 hn        1 MOL      0.460394
     64 H29        -2.1720   -1.2100    8.7590 hn        1 MOL      0.456594
@<TRIPOS>BOND
     1    1    2 ar  
     2    1    3 ar  
     3    2    4 ar  
     4    3    8 ar  
     5    4    9 ar  
     6    5    6 ar  
     7    5   10 ar  
     8    6   11 ar  
     9    7   10 ar  
    10    7   12 ar  
    11    7   13 1   
    12    8    9 ar  
    13    8   16 1   
    14    9   18 1   
    15   10   21 1   
    16   11   12 ar  
    17   11   35 1   
    18   12   34 1   
    19   13   29 1   
    20   13   31 1   
    21   14   22 1   
    22   14   27 1   
    23   14   32 2   
    24   15   23 1   
    25   15   30 1   
    26   15   33 1   
    27   16   19 1   
    28   17   20 1   
    29   17   34 1   
    30   18   19 1   
    31   18   21 1   
    32   19   27 1   
    33   20   24 1   
    34   20   35 1   
    35   22   25 1   
    36   23   24 1   
    37   25   26 1   
    38   26   28 1   
    39    1   36 1   
    40    2   37 1   
    41    3   38 1   
    42    4   39 1   
    43    5   40 1   
    44    6   41 1   
    45   16   42 1   
    46   16   43 1   
    47   17   44 1   
    48   17   45 1   
    49   18   46 1   
    50   19   47 1   
    51   20   48 1   
    52   21   49 1   
    53   21   50 1   
    54   22   51 1   
    55   22   52 1   
    56   23   53 1   
    57   23   54 1   
    58   24   55 1   
    59   24   56 1   
    60   25   57 1   
    61   25   58 1   
    62   26   59 1   
    63   26   60 1   
    64   27   61 1   
    65   28   62 1   
    66   28   63 1   
    67   28   64 1   
@<TRIPOS>SUBSTRUCTURE
     1 MOL         1 TEMP              0 ****  ****    0 ROOT
