@<TRIPOS>MOLECULE
AVX-17560_0
   54    55     1     0     0
SMALL
No Charge or Current Charge


@<TRIPOS>ATOM
      1 C1         -2.2650    1.6460   -2.7310 ca        1 MOL     -0.152304
      2 C2         -2.4030    2.8520   -3.4230 ca        1 MOL     -0.145004
      3 C3         -3.1940    2.6470   -0.7160 ca        1 MOL     -0.075004
      4 C4         -2.6590    1.5440   -1.3850 ca        1 MOL     -0.079904
      5 C5         -2.9350    3.9250   -2.7390 ca        1 MOL      0.036396
      6 C6         -3.3200    3.8260   -1.4210 ca        1 MOL      0.068496
      7 C7         -3.6140    2.5660    0.6930 c         1 MOL      0.924296
      8 C8          2.1870    0.6570   -0.8640 c         1 MOL      0.641996
      9 C9         -3.7030    5.8450   -2.0990 c3        1 MOL      0.317796
     10 C10        -1.1430   -3.0780   -2.0430 c3        1 MOL     -0.088304
     11 C11        -1.5340   -4.1010    0.2070 c3        1 MOL     -0.088904
     12 C12        -2.4890    0.2190   -0.6810 c3        1 MOL     -0.031704
     13 C13         3.5640    0.1290   -0.5010 c3        1 MOL     -0.167204
     14 C14         4.6020    0.4140   -1.5830 c3        1 MOL     -0.101504
     15 C15        -0.9360   -1.6640    0.0720 c3        1 MOL     -0.066304
     16 C16        -0.1280    0.7810    0.0350 c3        1 MOL      0.065396
     17 C17         5.9580   -0.1630   -1.2050 c3        1 MOL      0.095696
     18 C18        -1.6700   -2.8250   -0.6300 c3        1 MOL     -0.074104
     19 C19        -1.0240   -0.2830   -0.6240 c3        1 MOL     -0.080604
     20 N1          1.2520    0.3900    0.1310 n         1 MOL     -0.528804
     21 N2          6.9420    0.1770   -2.2600 n4        1 MOL     -0.839604
     22 O1         -4.8280    2.2270    0.9590 o         1 MOL     -0.796004
     23 O2         -2.7540    2.8370    1.6130 o         1 MOL     -0.836504
     24 O3          1.9470    1.2450   -1.9150 o         1 MOL     -0.620104
     25 O4         -3.1440    5.1710   -3.2450 os        1 MOL     -0.354804
     26 O5         -3.8180    4.9960   -0.9380 os        1 MOL     -0.311404
     27 H1         -1.8500    0.7830   -3.2460 ha        1 MOL      0.113196
     28 H2         -2.1020    2.9350   -4.4610 ha        1 MOL      0.131796
     29 H3         -3.0630    6.6980   -1.8470 h2        1 MOL      0.053096
     30 H4         -4.6990    6.2170   -2.3620 h2        1 MOL      0.058296
     31 H5         -0.0730   -3.3140   -2.0310 hc        1 MOL     -0.003204
     32 H6         -1.6690   -3.9190   -2.5090 hc        1 MOL      0.030596
     33 H7         -1.2930   -2.2070   -2.6870 hc        1 MOL      0.063096
     34 H8         -0.4820   -4.3880    0.3110 hc        1 MOL      0.009896
     35 H9         -2.0610   -4.9360   -0.2670 hc        1 MOL      0.033696
     36 H10        -1.9490   -3.9640    1.2120 hc        1 MOL      0.039996
     37 H11        -3.1140   -0.5150   -1.2080 hc        1 MOL      0.049796
     38 H12        -2.9040    0.2840    0.3340 hc        1 MOL      0.087296
     39 H13         3.4830   -0.9520   -0.3360 hc        1 MOL      0.073096
     40 H14         3.8700    0.5940    0.4440 hc        1 MOL      0.078696
     41 H15         4.6870    1.4980   -1.7370 hc        1 MOL      0.082196
     42 H16         4.2670   -0.0120   -2.5370 hc        1 MOL      0.080096
     43 H17        -1.3210   -1.5730    1.0960 hc        1 MOL      0.053296
     44 H18         0.1200   -1.9440    0.1720 hc        1 MOL     -0.000204
     45 H19        -0.1590    1.7150   -0.5380 h1        1 MOL      0.099596
     46 H20        -0.4710    1.0180    1.0470 h1        1 MOL      0.102396
     47 H21         6.3370    0.2600   -0.2700 hx        1 MOL      0.121696
     48 H22         5.9340   -1.2540   -1.1330 hx        1 MOL      0.112896
     49 H23        -2.7400   -2.5940   -0.6950 hc        1 MOL      0.071996
     50 H24        -0.6700   -0.3980   -1.6570 hc        1 MOL      0.057896
     51 H25         1.5460   -0.1380    0.9510 hn        1 MOL      0.310996
     52 H26         7.2210   -0.6590   -2.7860 hn        1 MOL      0.453896
     53 H27         7.7880    0.5910   -1.8540 hn        1 MOL      0.459696
     54 H28         6.5490    0.8510   -2.9260 hn        1 MOL      0.462196
@<TRIPOS>BOND
     1    1    2 ar  
     2    1    4 ar  
     3    2    5 ar  
     4    3    4 ar  
     5    3    6 ar  
     6    3    7 1   
     7    4   12 1   
     8    5    6 ar  
     9    5   25 1   
    10    6   26 1   
    11    7   22 1   
    12    7   23 1   
    13    8   13 1   
    14    8   20 1   
    15    8   24 2   
    16    9   25 1   
    17    9   26 1   
    18   10   18 1   
    19   11   18 1   
    20   12   19 1   
    21   13   14 1   
    22   14   17 1   
    23   15   18 1   
    24   15   19 1   
    25   16   19 1   
    26   16   20 1   
    27   17   21 1   
    28    1   27 1   
    29    2   28 1   
    30    9   29 1   
    31    9   30 1   
    32   10   31 1   
    33   10   32 1   
    34   10   33 1   
    35   11   34 1   
    36   11   35 1   
    37   11   36 1   
    38   12   37 1   
    39   12   38 1   
    40   13   39 1   
    41   13   40 1   
    42   14   41 1   
    43   14   42 1   
    44   15   43 1   
    45   15   44 1   
    46   16   45 1   
    47   16   46 1   
    48   17   47 1   
    49   17   48 1   
    50   18   49 1   
    51   19   50 1   
    52   20   51 1   
    53   21   52 1   
    54   21   53 1   
    55   21   54 1   
@<TRIPOS>SUBSTRUCTURE
     1 MOL         1 TEMP              0 ****  ****    0 ROOT
