@<TRIPOS>MOLECULE
AVX101121_0
   67    70     1     0     0
SMALL
No Charge or Current Charge


@<TRIPOS>ATOM
      1 C1         -0.4970   -2.0340    0.4940 ca        1 MOL     -0.110405
      2 C2          0.3500   -1.0280    0.0390 ca        1 MOL     -0.113805
      3 C3          6.5380   -4.3610    4.4290 ca        1 MOL     -0.119105
      4 C4         -0.0480   -3.3540    0.5450 ca        1 MOL     -0.117004
      5 C5          1.6480   -1.3370   -0.3660 ca        1 MOL     -0.109405
      6 C6          6.1330   -4.1300    3.1150 ca        1 MOL     -0.160504
      7 C7          6.2060   -9.4980    0.8340 ca        1 MOL     -0.079604
      8 C8          5.8590   -8.0800    2.7590 ca        1 MOL     -0.088205
      9 C9          7.8930   -4.3260    4.7580 ca        1 MOL     -0.183504
     10 C10         7.5670   -9.5700    1.1330 ca        1 MOL     -0.182204
     11 C11         7.2200   -8.1520    3.0580 ca        1 MOL     -0.178005
     12 C12         1.7240   -5.0070    0.1850 ca        1 MOL     -0.071705
     13 C13         3.4210   -2.9900   -0.7270 ca        1 MOL     -0.065405
     14 C14         1.2560   -3.6840    0.1400 ca        1 MOL     -0.026604
     15 C15         2.1170   -2.6600   -0.3220 ca        1 MOL     -0.029205
     16 C16         3.0230   -5.3170   -0.2210 ca        1 MOL     -0.128605
     17 C17         8.4380   -3.8300    2.4570 ca        1 MOL     -0.093804
     18 C18         5.3520   -8.7530    1.6470 ca        1 MOL     -0.164905
     19 C19         7.0830   -3.8650    2.1280 ca        1 MOL     -0.140205
     20 C20         3.8690   -4.3100   -0.6760 ca        1 MOL     -0.115805
     21 C21         8.0730   -8.8980    2.2440 ca        1 MOL      0.137596
     22 C22         8.8430   -4.0600    3.7720 ca        1 MOL      0.140495
     23 C23         3.4670   -6.7030   -0.1590 c         1 MOL      0.654496
     24 C24         9.4480   -3.5530    1.4170 c         1 MOL      0.915296
     25 C25         7.3840   -5.7090   -0.4000 c3        1 MOL      0.075896
     26 C26         9.8520   -8.2570    3.6870 c3        1 MOL      0.109796
     27 C27        10.4810   -4.2800    5.4820 c3        1 MOL      0.108595
     28 C28         3.8880   -8.6750    1.3260 c3        1 MOL      0.137596
     29 C29         6.6190   -3.6220    0.7230 c3        1 MOL      0.173396
     30 C30         5.2640   -4.6150   -1.1160 c3        1 MOL      0.153696
     31 N1          3.4550   -7.3150    1.0980 n         1 MOL     -0.561705
     32 N2          6.1930   -4.8830    0.0150 n4        1 MOL     -0.692604
     33 O1          9.9500   -4.5430    0.7670 o         1 MOL     -0.797104
     34 O2          3.8540   -7.2860   -1.1860 o         1 MOL     -0.606405
     35 O3          9.7880   -2.3320    1.1990 o         1 MOL     -0.805504
     36 O4          9.4010   -8.9690    2.5360 os        1 MOL     -0.322904
     37 O5         10.1620   -4.0330    4.1150 os        1 MOL     -0.297805
     38 H1         -1.5070   -1.7930    0.8100 ha        1 MOL      0.140696
     39 H2          0.0000    0.0000    0.0010 ha        1 MOL      0.142096
     40 H3          5.7980   -4.5660    5.1970 ha        1 MOL      0.128496
     41 H4         -0.7270   -4.1250    0.9040 ha        1 MOL      0.140196
     42 H5          2.2920   -0.5340   -0.7190 ha        1 MOL      0.142696
     43 H6          5.0750   -4.1600    2.8680 ha        1 MOL      0.115196
     44 H7          5.8200  -10.0260   -0.0340 ha        1 MOL      0.136195
     45 H8          5.2010   -7.4970    3.3980 ha        1 MOL      0.133396
     46 H9          8.2010   -4.5070    5.7850 ha        1 MOL      0.138195
     47 H10         8.2270  -10.1530    0.4950 ha        1 MOL      0.150595
     48 H11         7.6080   -7.6260    3.9250 ha        1 MOL      0.148996
     49 H12         1.0700   -5.8020    0.5390 ha        1 MOL      0.148895
     50 H13         4.0920   -2.2110   -1.0840 ha        1 MOL      0.145696
     51 H14         7.9460   -5.1360   -1.1390 hx        1 MOL      0.097096
     52 H15         7.9860   -5.8980    0.4910 hx        1 MOL      0.138096
     53 H16         7.0110   -6.6420   -0.8270 hx        1 MOL      0.075695
     54 H17        10.9290   -8.3990    3.8050 h1        1 MOL      0.069996
     55 H18         9.3270   -8.6240    4.5730 h1        1 MOL      0.037496
     56 H19         9.6390   -7.1940    3.5540 h1        1 MOL      0.037996
     57 H20        11.5640   -4.2290    5.6200 h1        1 MOL      0.070496
     58 H21        10.1130   -5.2670    5.7710 h1        1 MOL      0.036096
     59 H22        10.0020   -3.5190    6.1020 h1        1 MOL      0.024396
     60 H23         3.6580   -9.2580    0.4270 h1        1 MOL      0.072595
     61 H24         3.2840   -9.0860    2.1430 h1        1 MOL      0.063095
     62 H25         5.7590   -2.9440    0.7020 hx        1 MOL      0.094196
     63 H26         7.4120   -3.1740    0.1160 hx        1 MOL      0.116395
     64 H27         5.2980   -5.5020   -1.7620 hx        1 MOL      0.111696
     65 H28         5.6980   -3.7800   -1.6820 hx        1 MOL      0.102295
     66 H29         3.1890   -6.7730    1.9140 hn        1 MOL      0.323595
     67 H30         5.6800   -5.4470    0.7130 hn        1 MOL      0.472596
@<TRIPOS>BOND
     1    1    2 ar  
     2    1    4 ar  
     3    2    5 ar  
     4    3    6 ar  
     5    3    9 ar  
     6    4   14 ar  
     7    5   15 ar  
     8    6   19 ar  
     9    7   10 ar  
    10    7   18 ar  
    11    8   11 ar  
    12    8   18 ar  
    13    9   22 ar  
    14   10   21 ar  
    15   11   21 ar  
    16   12   14 ar  
    17   12   16 ar  
    18   13   15 ar  
    19   13   20 ar  
    20   14   15 ar  
    21   16   20 ar  
    22   16   23 1   
    23   17   19 ar  
    24   17   22 ar  
    25   17   24 1   
    26   18   28 1   
    27   19   29 1   
    28   20   30 1   
    29   21   36 1   
    30   22   37 1   
    31   23   31 1   
    32   23   34 2   
    33   24   33 1   
    34   24   35 1   
    35   25   32 1   
    36   26   36 1   
    37   27   37 1   
    38   28   31 1   
    39   29   32 1   
    40   30   32 1   
    41    1   38 1   
    42    2   39 1   
    43    3   40 1   
    44    4   41 1   
    45    5   42 1   
    46    6   43 1   
    47    7   44 1   
    48    8   45 1   
    49    9   46 1   
    50   10   47 1   
    51   11   48 1   
    52   12   49 1   
    53   13   50 1   
    54   25   51 1   
    55   25   52 1   
    56   25   53 1   
    57   26   54 1   
    58   26   55 1   
    59   26   56 1   
    60   27   57 1   
    61   27   58 1   
    62   27   59 1   
    63   28   60 1   
    64   28   61 1   
    65   29   62 1   
    66   29   63 1   
    67   30   64 1   
    68   30   65 1   
    69   31   66 1   
    70   32   67 1   
@<TRIPOS>SUBSTRUCTURE
     1 MOL         1 TEMP              0 ****  ****    0 ROOT
