@<TRIPOS>MOLECULE
GL5243-104_0
   51    53     1     0     0
SMALL
No Charge or Current Charge


@<TRIPOS>ATOM
      1 C1         -2.5070    0.9000   -3.0950 ca        1 MOL     -0.150898
      2 C2         -2.7290    1.8220   -4.1200 ca        1 MOL     -0.143798
      3 C3          1.1230    3.8810   -3.5920 ca        1 MOL     -0.196498
      4 C4          0.1780    4.7330   -1.5510 ca        1 MOL     -0.216298
      5 C5          1.0080    5.1590   -4.1150 ca        1 MOL      0.373902
      6 C6          0.1050    5.9730   -2.1660 ca        1 MOL      0.378602
      7 C7          0.6980    3.6730   -2.2850 ca        1 MOL     -0.092898
      8 C8         -3.2080    2.5260   -1.4240 ca        1 MOL     -0.076398
      9 C9         -2.7450    1.2500   -1.7540 ca        1 MOL     -0.071898
     10 C10        -3.1870    3.0750   -3.7680 ca        1 MOL      0.031402
     11 C11        -3.4200    3.4180   -2.4550 ca        1 MOL      0.064202
     12 C12         0.7990    2.3220   -1.6740 c         1 MOL      0.655302
     13 C13        -3.4660    2.9170   -0.0280 c         1 MOL      0.923102
     14 C14        -3.8890    5.1210   -3.7050 c3        1 MOL      0.318502
     15 C15        -1.1430   -3.0780   -2.0430 c3        1 MOL     -0.090098
     16 C16        -1.5340   -4.1010    0.2070 c3        1 MOL     -0.088598
     17 C17        -2.4890    0.2190   -0.6810 c3        1 MOL     -0.034298
     18 C18        -0.9360   -1.6640    0.0720 c3        1 MOL     -0.069398
     19 C19        -0.1280    0.7810    0.0350 c3        1 MOL      0.081002
     20 C20        -1.6700   -2.8250   -0.6300 c3        1 MOL     -0.069298
     21 C21        -1.0240   -0.2830   -0.6240 c3        1 MOL     -0.081298
     22 N1          0.5080    6.2140   -3.4330 nb        1 MOL     -0.666998
     23 N2         -0.1150    2.0350   -0.6670 n         1 MOL     -0.541898
     24 O1         -4.6400    2.7200    0.4640 o         1 MOL     -0.801598
     25 O2          1.6750    1.5530   -2.0620 o         1 MOL     -0.612298
     26 O3         -2.5100    3.4430    0.6550 o         1 MOL     -0.830998
     27 O4         -3.4590    4.0960   -4.6250 os        1 MOL     -0.356098
     28 O5         -3.8670    4.6970   -2.3260 os        1 MOL     -0.314198
     29 H1         -2.1470   -0.0950   -3.3440 ha        1 MOL      0.119602
     30 H2         -2.5470    1.5560   -5.1550 ha        1 MOL      0.129202
     31 H3          1.5350    3.0770   -4.1920 ha        1 MOL      0.165502
     32 H4         -0.1620    4.6050   -0.5290 ha        1 MOL      0.158502
     33 H5          1.3260    5.3750   -5.1300 h4        1 MOL      0.015502
     34 H6         -0.2930    6.8320   -1.6360 h4        1 MOL      0.017902
     35 H7         -3.2300    5.9900   -3.8150 h2        1 MOL      0.050102
     36 H8         -4.9110    5.4190   -3.9640 h2        1 MOL      0.051302
     37 H9         -0.0730   -3.3140   -2.0310 hc        1 MOL      0.026602
     38 H10        -1.6690   -3.9190   -2.5090 hc        1 MOL      0.020902
     39 H11        -1.2930   -2.2070   -2.6870 hc        1 MOL      0.048102
     40 H12        -0.4820   -4.3880    0.3110 hc        1 MOL      0.025102
     41 H13        -2.0610   -4.9360   -0.2670 hc        1 MOL      0.023102
     42 H14        -1.9490   -3.9640    1.2120 hc        1 MOL      0.032602
     43 H15        -3.1650   -0.6260   -0.8710 hc        1 MOL      0.042102
     44 H16        -2.7880    0.6210    0.2960 hc        1 MOL      0.086002
     45 H17        -1.3210   -1.5730    1.0960 hc        1 MOL      0.046302
     46 H18         0.1200   -1.9440    0.1720 hc        1 MOL      0.028302
     47 H19        -0.4690    0.9880    1.0560 h1        1 MOL      0.093302
     48 H20         0.9080    0.4380    0.1100 h1        1 MOL      0.065502
     49 H21        -2.7400   -2.5940   -0.6950 hc        1 MOL      0.055802
     50 H22        -0.6700   -0.3980   -1.6570 hc        1 MOL      0.054102
     51 H23        -0.7700    2.7520   -0.3600 hn        1 MOL      0.324302
@<TRIPOS>BOND
     1    1    2 ar  
     2    1    9 ar  
     3    2   10 ar  
     4    3    5 ar  
     5    3    7 ar  
     6    4    6 ar  
     7    4    7 ar  
     8    5   22 ar  
     9    6   22 ar  
    10    7   12 1   
    11    8    9 ar  
    12    8   11 ar  
    13    8   13 1   
    14    9   17 1   
    15   10   11 ar  
    16   10   27 1   
    17   11   28 1   
    18   12   23 1   
    19   12   25 2   
    20   13   24 1   
    21   13   26 1   
    22   14   27 1   
    23   14   28 1   
    24   15   20 1   
    25   16   20 1   
    26   17   21 1   
    27   18   20 1   
    28   18   21 1   
    29   19   21 1   
    30   19   23 1   
    31    1   29 1   
    32    2   30 1   
    33    3   31 1   
    34    4   32 1   
    35    5   33 1   
    36    6   34 1   
    37   14   35 1   
    38   14   36 1   
    39   15   37 1   
    40   15   38 1   
    41   15   39 1   
    42   16   40 1   
    43   16   41 1   
    44   16   42 1   
    45   17   43 1   
    46   17   44 1   
    47   18   45 1   
    48   18   46 1   
    49   19   47 1   
    50   19   48 1   
    51   20   49 1   
    52   21   50 1   
    53   23   51 1   
@<TRIPOS>SUBSTRUCTURE
     1 MOL         1 TEMP              0 ****  ****    0 ROOT
