@<TRIPOS>MOLECULE
AVX38672_0
   58    60     1     0     0
SMALL
No Charge or Current Charge


@<TRIPOS>ATOM
      1 C1          3.8680    1.3150    2.0060 ca        1 MOL     -0.131405
      2 C2          2.5720    1.1740    2.5010 ca        1 MOL     -0.137105
      3 C3          4.1870    0.8330    0.7370 ca        1 MOL     -0.134905
      4 C4          1.5940    0.5490    1.7260 ca        1 MOL     -0.111805
      5 C5          3.2100    0.2080   -0.0370 ca        1 MOL     -0.100205
      6 C6         -1.7430    0.5620   -5.4310 ca        1 MOL     -0.138105
      7 C7         -2.5990    0.0460   -6.4080 ca        1 MOL     -0.150405
      8 C8         -0.2690    1.4720   -7.1420 ca        1 MOL     -0.060405
      9 C9          1.9130    0.0660    0.4570 ca        1 MOL     -0.090805
     10 C10        -0.5850    1.2700   -5.7960 ca        1 MOL     -0.111505
     11 C11        -2.2640    0.2590   -7.7290 ca        1 MOL      0.039395
     12 C12        -1.1300    0.9520   -8.0870 ca        1 MOL      0.059295
     13 C13         0.9370    2.2110   -7.5500 c         1 MOL      0.922195
     14 C14         0.8110   -2.1140   -0.1330 c         1 MOL      0.651195
     15 C15         0.5140    0.6890   -2.4730 c         1 MOL      0.765495
     16 C16        -2.1570    0.3380   -9.8890 c3        1 MOL      0.318495
     17 C17        -1.3030   -3.8060    2.4800 c3        1 MOL     -0.105505
     18 C18        -0.7680   -4.6640    0.1850 c3        1 MOL     -0.114305
     19 C19         1.0630   -4.3590    1.8720 c3        1 MOL     -0.104605
     20 C20         1.6470   -0.2600   -4.4960 c3        1 MOL      0.056695
     21 C21         0.3030    1.8050   -4.7100 c3        1 MOL      0.130995
     22 C22         0.8550   -0.6110   -0.3820 c3        1 MOL      0.097995
     23 C23        -0.2670   -3.8030    1.3500 c3        1 MOL      0.125695
     24 N1         -0.0700   -2.4490    0.8860 n         1 MOL     -0.559505
     25 N2          1.0670   -0.3940   -1.7960 n         1 MOL     -0.561905
     26 N3          0.8120    0.7420   -3.8470 n         1 MOL     -0.436805
     27 O1          0.8560    3.4850   -7.7160 o         1 MOL     -0.811705
     28 O2          2.0330    1.5580   -7.7280 o         1 MOL     -0.813105
     29 O3          1.5140   -2.9130   -0.7490 o         1 MOL     -0.619105
     30 O4         -0.1920    1.5270   -1.9030 o         1 MOL     -0.635805
     31 O5         -2.9720   -0.1660   -8.8110 os        1 MOL     -0.358205
     32 O6         -0.9870    1.0490   -9.4370 os        1 MOL     -0.313005
     33 H1          4.6290    1.8030    2.6090 ha        1 MOL      0.120395
     34 H2          2.3230    1.5500    3.4890 ha        1 MOL      0.126195
     35 H3          5.1960    0.9440    0.3520 ha        1 MOL      0.127195
     36 H4          0.5870    0.4430    2.1200 ha        1 MOL      0.131795
     37 H5          3.4680   -0.1650   -1.0250 ha        1 MOL      0.146595
     38 H6         -1.9820    0.4100   -4.3810 ha        1 MOL      0.121595
     39 H7         -3.4930   -0.5010   -6.1310 ha        1 MOL      0.130595
     40 H8         -1.8360   -0.5060  -10.5100 h2        1 MOL      0.049995
     41 H9         -2.7640    1.0150  -10.5010 h2        1 MOL      0.050795
     42 H10        -0.9680   -3.1960    3.3270 hc        1 MOL      0.035495
     43 H11        -2.2660   -3.4090    2.1400 hc        1 MOL      0.039995
     44 H12        -1.4720   -4.8210    2.8590 hc        1 MOL      0.041395
     45 H13        -0.0420   -4.6780   -0.6360 hc        1 MOL      0.072895
     46 H14        -1.7080   -4.2730   -0.2200 hc        1 MOL      0.044495
     47 H15        -0.9400   -5.6990    0.5000 hc        1 MOL      0.028495
     48 H16         1.8240   -4.3680    1.0830 hc        1 MOL      0.070195
     49 H17         1.4470   -3.7580    2.7040 hc        1 MOL      0.032495
     50 H18         0.9500   -5.3900    2.2250 hc        1 MOL      0.028595
     51 H19         1.0290   -1.0810   -4.8670 h1        1 MOL      0.023195
     52 H20         2.3770   -0.6600   -3.7880 h1        1 MOL      0.026795
     53 H21         2.1840    0.1850   -5.3390 h1        1 MOL      0.081895
     54 H22         1.1630    2.3320   -5.1380 h1        1 MOL      0.088495
     55 H23        -0.2350    2.5200   -4.0790 h1        1 MOL      0.081195
     56 H24        -0.1340   -0.1870   -0.1690 h1        1 MOL      0.101695
     57 H25        -0.6090   -1.7170    1.3390 hn        1 MOL      0.311295
     58 H26         1.6390   -1.0530   -2.3110 hn        1 MOL      0.318995
@<TRIPOS>BOND
     1    1    2 ar  
     2    1    3 ar  
     3    2    4 ar  
     4    3    5 ar  
     5    4    9 ar  
     6    5    9 ar  
     7    6    7 ar  
     8    6   10 ar  
     9    7   11 ar  
    10    8   10 ar  
    11    8   12 ar  
    12    8   13 1   
    13    9   22 1   
    14   10   21 1   
    15   11   12 ar  
    16   11   31 1   
    17   12   32 1   
    18   13   27 1   
    19   13   28 1   
    20   14   22 1   
    21   14   24 1   
    22   14   29 2   
    23   15   25 1   
    24   15   26 1   
    25   15   30 2   
    26   16   31 1   
    27   16   32 1   
    28   17   23 1   
    29   18   23 1   
    30   19   23 1   
    31   20   26 1   
    32   21   26 1   
    33   22   25 1   
    34   23   24 1   
    35    1   33 1   
    36    2   34 1   
    37    3   35 1   
    38    4   36 1   
    39    5   37 1   
    40    6   38 1   
    41    7   39 1   
    42   16   40 1   
    43   16   41 1   
    44   17   42 1   
    45   17   43 1   
    46   17   44 1   
    47   18   45 1   
    48   18   46 1   
    49   18   47 1   
    50   19   48 1   
    51   19   49 1   
    52   19   50 1   
    53   20   51 1   
    54   20   52 1   
    55   20   53 1   
    56   21   54 1   
    57   21   55 1   
    58   22   56 1   
    59   24   57 1   
    60   25   58 1   
@<TRIPOS>SUBSTRUCTURE
     1 MOL         1 TEMP              0 ****  ****    0 ROOT
