@<TRIPOS>MOLECULE
AVX38783_1
   68    71     1     0     0
SMALL
No Charge or Current Charge


@<TRIPOS>ATOM
      1 C1          8.0870   -2.3330    2.9530 ca        1 MOL     -0.108000
      2 C2          7.5000   -2.8580    1.8020 ca        1 MOL     -0.107400
      3 C3          0.6010    1.6210    4.5730 cc        1 MOL     -0.261300
      4 C4          7.4260   -1.3480    3.6870 ca        1 MOL     -0.093500
      5 C5          6.2520   -2.3960    1.3840 ca        1 MOL     -0.112900
      6 C6          2.4920   -1.6910   -1.3570 ca        1 MOL     -0.133100
      7 C7          2.6030   -1.1300   -2.6300 ca        1 MOL     -0.150600
      8 C8          1.8890    2.0240    4.9970 cc        1 MOL     -0.234800
      9 C9          0.5560    0.2560    4.7310 cd        1 MOL      0.253800
     10 C10         6.1780   -0.8870    3.2680 ca        1 MOL     -0.093800
     11 C11         1.6210    0.3970   -0.5040 ca        1 MOL     -0.072700
     12 C12         5.5910   -1.4110    2.1170 ca        1 MOL     -0.095900
     13 C13         2.0070   -0.9270   -0.2950 ca        1 MOL     -0.185800
     14 C14         2.2300    0.1990   -2.8360 ca        1 MOL      0.096400
     15 C15         1.7190    0.9550   -1.7790 ca        1 MOL      0.073700
     16 C16         2.5400    0.8760    5.3850 cd        1 MOL      0.198600
     17 C17         1.0460   -4.0130    3.6030 c2        1 MOL     -0.165300
     18 C18         2.1450   -3.8980    2.8490 c2        1 MOL     -0.215400
     19 C19         5.5100    0.1440    4.0520 c         1 MOL      0.652800
     20 C20         1.1000    1.1990    0.6210 c         1 MOL      0.921100
     21 C21         3.4070    2.5920   -7.8720 c         1 MOL      0.910500
     22 C22         1.1200    2.6020   -3.3010 c3        1 MOL      0.086400
     23 C23         2.3100    2.1320   -4.1280 c3        1 MOL      0.099000
     24 C24         4.2500   -0.9320    1.6440 c3        1 MOL      0.151300
     25 C25         1.9100   -1.5570    1.0570 c3        1 MOL      0.188100
     26 C26         3.9150    0.6080    5.9270 c3        1 MOL      0.061200
     27 C27         3.0770   -2.7330    2.9060 c3        1 MOL      0.141200
     28 C28         3.3990    2.1790   -6.3960 c3        1 MOL     -0.198000
     29 C29         2.1790    2.5630   -5.5820 c3        1 MOL     -0.054900
     30 N1          4.6650   -0.2900    5.0780 n         1 MOL     -0.537500
     31 N2          3.2200   -2.0310    1.5800 n4        1 MOL     -0.701900
     32 O1         -0.1650    1.1900    0.8480 o         1 MOL     -0.752300
     33 O2          4.4250    2.2670   -8.5420 o         1 MOL     -0.847600
     34 O3          5.6840    1.3460    3.7890 o         1 MOL     -0.611500
     35 O4          1.9310    1.8760    1.3300 o         1 MOL     -0.881300
     36 O5          2.3660    3.2070   -8.2430 o         1 MOL     -0.852400
     37 O6          1.7340   -0.2060    5.2260 os        1 MOL     -0.358800
     38 O7          1.3050    2.2520   -1.9260 os        1 MOL     -0.295700
     39 O8          2.3810    0.7000   -4.1020 os        1 MOL     -0.301400
     40 H1          9.0590   -2.6920    3.2800 ha        1 MOL      0.139900
     41 H2          8.0150   -3.6250    1.2310 ha        1 MOL      0.141900
     42 H3         -0.1960    2.2480    4.1980 ha        1 MOL      0.167300
     43 H4          7.8950   -0.9470    4.5820 ha        1 MOL      0.148500
     44 H5          5.8030   -2.8120    0.4850 ha        1 MOL      0.136800
     45 H6          2.7910   -2.7250   -1.2030 ha        1 MOL      0.109000
     46 H7          2.9920   -1.7280   -3.4490 ha        1 MOL      0.152000
     47 H8          2.2910    3.0270    5.0160 ha        1 MOL      0.160000
     48 H9         -0.2000   -0.4930    4.5480 h4        1 MOL      0.056300
     49 H10         0.4100   -4.8870    3.5180 ha        1 MOL      0.127400
     50 H11         0.7640   -3.2440    4.3140 ha        1 MOL      0.123000
     51 H12         2.3860   -4.6990    2.1550 ha        1 MOL      0.141800
     52 H13         1.0200    3.6920   -3.3510 h1        1 MOL      0.085200
     53 H14         0.1790    2.1580   -3.6490 h1        1 MOL      0.060100
     54 H15         3.2490    2.5260   -3.7160 h1        1 MOL      0.058500
     55 H16         3.8470   -0.1620    2.3100 hx        1 MOL      0.123900
     56 H17         4.3150   -0.5040    0.6380 hx        1 MOL      0.102000
     57 H18         1.5160   -0.8530    1.8000 hx        1 MOL      0.125700
     58 H19         1.2460   -2.4300    1.0460 hx        1 MOL      0.066000
     59 H20         4.4830    1.5400    6.0170 h1        1 MOL      0.080200
     60 H21         3.8630    0.1610    6.9250 h1        1 MOL      0.064400
     61 H22         4.0810   -3.0670    3.1880 hx        1 MOL      0.090700
     62 H23         2.7500   -1.9720    3.6210 hx        1 MOL      0.109200
     63 H24         4.2710    2.6640   -5.9390 hc        1 MOL      0.021100
     64 H25         3.5670    1.0960   -6.3360 hc        1 MOL      0.035800
     65 H26         1.2680    2.1260   -5.9860 hc        1 MOL      0.064100
     66 H27         2.0600    3.6470   -5.5850 hc        1 MOL      0.062800
     67 H28         4.5110   -1.2850    5.2090 hn        1 MOL      0.343000
     68 H29         3.5870   -2.7330    0.9170 hn        1 MOL      0.493100
@<TRIPOS>BOND
     1    1    2 ar  
     2    1    4 ar  
     3    2    5 ar  
     4    3    8 ar  
     5    3    9 ar  
     6    4   10 ar  
     7    5   12 ar  
     8    6    7 ar  
     9    6   13 ar  
    10    7   14 ar  
    11    8   16 ar  
    12    9   37 ar  
    13   10   12 ar  
    14   10   19 1   
    15   11   13 ar  
    16   11   15 ar  
    17   11   20 1   
    18   12   24 1   
    19   13   25 1   
    20   14   15 ar  
    21   14   39 1   
    22   15   38 1   
    23   16   26 1   
    24   16   37 ar  
    25   17   18 2   
    26   18   27 1   
    27   19   30 1   
    28   19   34 2   
    29   20   32 1   
    30   20   35 1   
    31   21   28 1   
    32   21   33 1   
    33   21   36 1   
    34   22   23 1   
    35   22   38 1   
    36   23   29 1   
    37   23   39 1   
    38   24   31 1   
    39   25   31 1   
    40   26   30 1   
    41   27   31 1   
    42   28   29 1   
    43    1   40 1   
    44    2   41 1   
    45    3   42 1   
    46    4   43 1   
    47    5   44 1   
    48    6   45 1   
    49    7   46 1   
    50    8   47 1   
    51    9   48 1   
    52   17   49 1   
    53   17   50 1   
    54   18   51 1   
    55   22   52 1   
    56   22   53 1   
    57   23   54 1   
    58   24   55 1   
    59   24   56 1   
    60   25   57 1   
    61   25   58 1   
    62   26   59 1   
    63   26   60 1   
    64   27   61 1   
    65   27   62 1   
    66   28   63 1   
    67   28   64 1   
    68   29   65 1   
    69   29   66 1   
    70   30   67 1   
    71   31   68 1   
@<TRIPOS>SUBSTRUCTURE
     1 MOL         1 TEMP              0 ****  ****    0 ROOT
