@<TRIPOS>MOLECULE
AVX-17542_0
   57    58     1     0     0
SMALL
No Charge or Current Charge


@<TRIPOS>ATOM
      1 C1         -2.2650    1.6460   -2.7310 ca        1 MOL     -0.148900
      2 C2         -2.4030    2.8520   -3.4230 ca        1 MOL     -0.145000
      3 C3         -3.1940    2.6470   -0.7160 ca        1 MOL     -0.072900
      4 C4         -2.6590    1.5440   -1.3850 ca        1 MOL     -0.078900
      5 C5         -2.9350    3.9250   -2.7390 ca        1 MOL      0.036600
      6 C6         -3.3200    3.8260   -1.4210 ca        1 MOL      0.067400
      7 C7         -3.6140    2.5660    0.6930 c         1 MOL      0.923400
      8 C8          2.1950    0.6520   -0.8580 c         1 MOL      0.641500
      9 C9         -3.7030    5.8450   -2.0990 c3        1 MOL      0.318100
     10 C10        -1.1430   -3.0780   -2.0430 c3        1 MOL     -0.090700
     11 C11        -1.5340   -4.1010    0.2070 c3        1 MOL     -0.089500
     12 C12        -2.4890    0.2190   -0.6810 c3        1 MOL     -0.031600
     13 C13         3.5750    0.1460   -0.4710 c3        1 MOL     -0.165200
     14 C14         4.6470    0.4100   -1.5280 c3        1 MOL     -0.067100
     15 C15         6.0370   -0.0450   -1.0750 c3        1 MOL     -0.118700
     16 C16        -0.9360   -1.6640    0.0720 c3        1 MOL     -0.066900
     17 C17        -0.1280    0.7810    0.0350 c3        1 MOL      0.073400
     18 C18         7.0720    0.2060   -2.1620 c3        1 MOL      0.103500
     19 C19        -1.6700   -2.8250   -0.6300 c3        1 MOL     -0.071500
     20 C20        -1.0240   -0.2830   -0.6240 c3        1 MOL     -0.084200
     21 N1          1.2520    0.3900    0.1310 n         1 MOL     -0.541000
     22 N2          8.4080   -0.2070   -1.6660 n4        1 MOL     -0.841400
     23 O1         -4.8280    2.2270    0.9590 o         1 MOL     -0.809000
     24 O2         -2.7540    2.8370    1.6130 o         1 MOL     -0.825500
     25 O3          1.9650    1.2390   -1.9120 o         1 MOL     -0.612800
     26 O4         -3.1440    5.1710   -3.2450 os        1 MOL     -0.355700
     27 O5         -3.8180    4.9960   -0.9380 os        1 MOL     -0.312400
     28 H1         -1.8500    0.7830   -3.2460 ha        1 MOL      0.113500
     29 H2         -2.1020    2.9350   -4.4610 ha        1 MOL      0.130200
     30 H3         -3.0630    6.6980   -1.8470 h2        1 MOL      0.052400
     31 H4         -4.6990    6.2170   -2.3620 h2        1 MOL      0.056500
     32 H5         -0.0730   -3.3140   -2.0310 hc        1 MOL     -0.005200
     33 H6         -1.6690   -3.9190   -2.5090 hc        1 MOL      0.026900
     34 H7         -1.2930   -2.2070   -2.6870 hc        1 MOL      0.070400
     35 H8         -0.4820   -4.3880    0.3110 hc        1 MOL      0.011800
     36 H9         -2.0610   -4.9360   -0.2670 hc        1 MOL      0.031100
     37 H10        -1.9490   -3.9640    1.2120 hc        1 MOL      0.038500
     38 H11        -3.1140   -0.5150   -1.2080 hc        1 MOL      0.055000
     39 H12        -2.9040    0.2840    0.3340 hc        1 MOL      0.077300
     40 H13         3.5190   -0.9260   -0.2490 hc        1 MOL      0.063500
     41 H14         3.8560    0.6610    0.4550 hc        1 MOL      0.076500
     42 H15         4.3820   -0.0810   -2.4710 hc        1 MOL      0.071600
     43 H16         4.6770    1.4890   -1.7280 hc        1 MOL      0.060100
     44 H17         6.3200    0.4940   -0.1630 hc        1 MOL      0.071300
     45 H18         6.0210   -1.1120   -0.8230 hc        1 MOL      0.084000
     46 H19        -1.3210   -1.5730    1.0960 hc        1 MOL      0.047500
     47 H20         0.1200   -1.9440    0.1720 hc        1 MOL      0.006500
     48 H21        -0.1590    1.7150   -0.5380 h1        1 MOL      0.102100
     49 H22        -0.4710    1.0180    1.0470 h1        1 MOL      0.078700
     50 H23         7.1450    1.2660   -2.4230 hx        1 MOL      0.109200
     51 H24         6.8720   -0.3820   -3.0620 hx        1 MOL      0.113100
     52 H25        -2.7400   -2.5940   -0.6950 hc        1 MOL      0.071000
     53 H26        -0.6700   -0.3980   -1.6570 hc        1 MOL      0.066400
     54 H27         1.5470   -0.1170    0.9640 hn        1 MOL      0.306000
     55 H28         8.5990    0.1990   -0.7440 hn        1 MOL      0.461600
     56 H29         9.1480    0.1020   -2.3060 hn        1 MOL      0.455600
     57 H30         8.4690   -1.2270   -1.5810 hn        1 MOL      0.461900
@<TRIPOS>BOND
     1    1    2 ar  
     2    1    4 ar  
     3    2    5 ar  
     4    3    4 ar  
     5    3    6 ar  
     6    3    7 1   
     7    4   12 1   
     8    5    6 ar  
     9    5   26 1   
    10    6   27 1   
    11    7   23 1   
    12    7   24 1   
    13    8   13 1   
    14    8   21 1   
    15    8   25 2   
    16    9   26 1   
    17    9   27 1   
    18   10   19 1   
    19   11   19 1   
    20   12   20 1   
    21   13   14 1   
    22   14   15 1   
    23   15   18 1   
    24   16   19 1   
    25   16   20 1   
    26   17   20 1   
    27   17   21 1   
    28   18   22 1   
    29    1   28 1   
    30    2   29 1   
    31    9   30 1   
    32    9   31 1   
    33   10   32 1   
    34   10   33 1   
    35   10   34 1   
    36   11   35 1   
    37   11   36 1   
    38   11   37 1   
    39   12   38 1   
    40   12   39 1   
    41   13   40 1   
    42   13   41 1   
    43   14   42 1   
    44   14   43 1   
    45   15   44 1   
    46   15   45 1   
    47   16   46 1   
    48   16   47 1   
    49   17   48 1   
    50   17   49 1   
    51   18   50 1   
    52   18   51 1   
    53   19   52 1   
    54   20   53 1   
    55   21   54 1   
    56   22   55 1   
    57   22   56 1   
    58   22   57 1   
@<TRIPOS>SUBSTRUCTURE
     1 MOL         1 TEMP              0 ****  ****    0 ROOT
