@<TRIPOS>MOLECULE
GL5243-102_0
   52    54     1     0     0
SMALL
No Charge or Current Charge


@<TRIPOS>ATOM
      1 C1         -2.2650    1.6460   -2.7310 ca        1 MOL     -0.144298
      2 C2         -2.4030    2.8520   -3.4230 ca        1 MOL     -0.141798
      3 C3          5.4200    1.5670   -1.6150 cc        1 MOL     -0.243298
      4 C4          5.8110    0.1650   -3.2700 cc        1 MOL      0.379002
      5 C5         -3.1940    2.6470   -0.7160 ca        1 MOL     -0.072598
      6 C6         -2.6590    1.5440   -1.3850 ca        1 MOL     -0.071698
      7 C7         -2.9350    3.9250   -2.7390 ca        1 MOL      0.032402
      8 C8         -3.3200    3.8260   -1.4210 ca        1 MOL      0.063702
      9 C9          4.6090    0.4590   -1.5380 cd        1 MOL      0.315002
     10 C10        -3.6140    2.5660    0.6930 c         1 MOL      0.922102
     11 C11         2.1830    0.6600   -0.8670 c         1 MOL      0.653902
     12 C12        -3.7030    5.8450   -2.0990 c3        1 MOL      0.319302
     13 C13        -1.1430   -3.0780   -2.0430 c3        1 MOL     -0.092298
     14 C14        -1.5340   -4.1010    0.2070 c3        1 MOL     -0.088298
     15 C15        -2.4890    0.2190   -0.6810 c3        1 MOL     -0.031898
     16 C16         3.5610    0.1410   -0.5050 c3        1 MOL     -0.173598
     17 C17        -0.9360   -1.6640    0.0720 c3        1 MOL     -0.067998
     18 C18        -0.1280    0.7810    0.0350 c3        1 MOL      0.082302
     19 C19        -1.6700   -2.8250   -0.6300 c3        1 MOL     -0.068698
     20 C20        -1.0240   -0.2830   -0.6240 c3        1 MOL     -0.084898
     21 N1          4.8580   -0.4100   -2.5710 nd        1 MOL     -0.648798
     22 N2          6.1840    1.3640   -2.7290 na        1 MOL     -0.326498
     23 N3          1.2520    0.3900    0.1310 n         1 MOL     -0.554198
     24 O1         -4.8280    2.2270    0.9590 o         1 MOL     -0.811798
     25 O2         -2.7540    2.8370    1.6130 o         1 MOL     -0.826198
     26 O3          1.9350    1.2480   -1.9160 o         1 MOL     -0.606298
     27 O4         -3.1440    5.1710   -3.2450 os        1 MOL     -0.357698
     28 O5         -3.8180    4.9960   -0.9380 os        1 MOL     -0.315598
     29 H1         -1.8500    0.7830   -3.2460 ha        1 MOL      0.119502
     30 H2         -2.1020    2.9350   -4.4610 ha        1 MOL      0.127502
     31 H3          5.5210    2.4510   -1.0020 h4        1 MOL      0.180702
     32 H4          6.2690   -0.2280   -4.1660 h5        1 MOL      0.053902
     33 H5         -3.0630    6.6980   -1.8470 h2        1 MOL      0.048502
     34 H6         -4.6990    6.2170   -2.3620 h2        1 MOL      0.048502
     35 H7         -0.0730   -3.3140   -2.0310 hc        1 MOL      0.024402
     36 H8         -1.6690   -3.9190   -2.5090 hc        1 MOL      0.018502
     37 H9         -1.2930   -2.2070   -2.6870 hc        1 MOL      0.058102
     38 H10        -0.4820   -4.3880    0.3110 hc        1 MOL      0.022702
     39 H11        -2.0610   -4.9360   -0.2670 hc        1 MOL      0.022502
     40 H12        -1.9490   -3.9640    1.2120 hc        1 MOL      0.030102
     41 H13        -3.1140   -0.5150   -1.2080 hc        1 MOL      0.044602
     42 H14        -2.9040    0.2840    0.3340 hc        1 MOL      0.077602
     43 H15         3.5030   -0.9460   -0.3620 hc        1 MOL      0.065102
     44 H16         3.8530    0.5680    0.4630 hc        1 MOL      0.073102
     45 H17        -1.3210   -1.5730    1.0960 hc        1 MOL      0.041002
     46 H18         0.1200   -1.9440    0.1720 hc        1 MOL      0.024002
     47 H19        -0.1590    1.7150   -0.5380 h1        1 MOL      0.095502
     48 H20        -0.4710    1.0180    1.0470 h1        1 MOL      0.062102
     49 H21        -2.7400   -2.5940   -0.6950 hc        1 MOL      0.056902
     50 H22        -0.6700   -0.3980   -1.6570 hc        1 MOL      0.064202
     51 H23         6.8950    1.9880   -3.0890 hn        1 MOL      0.294502
     52 H24         1.5610   -0.1060    0.9650 hn        1 MOL      0.307202
@<TRIPOS>BOND
     1    1    2 ar  
     2    1    6 ar  
     3    2    7 ar  
     4    3    9 ar  
     5    3   22 ar  
     6    4   21 ar  
     7    4   22 ar  
     8    5    6 ar  
     9    5    8 ar  
    10    5   10 1   
    11    6   15 1   
    12    7    8 ar  
    13    7   27 1   
    14    8   28 1   
    15    9   16 1   
    16    9   21 ar  
    17   10   24 1   
    18   10   25 1   
    19   11   16 1   
    20   11   23 1   
    21   11   26 2   
    22   12   27 1   
    23   12   28 1   
    24   13   19 1   
    25   14   19 1   
    26   15   20 1   
    27   17   19 1   
    28   17   20 1   
    29   18   20 1   
    30   18   23 1   
    31    1   29 1   
    32    2   30 1   
    33    3   31 1   
    34    4   32 1   
    35   12   33 1   
    36   12   34 1   
    37   13   35 1   
    38   13   36 1   
    39   13   37 1   
    40   14   38 1   
    41   14   39 1   
    42   14   40 1   
    43   15   41 1   
    44   15   42 1   
    45   16   43 1   
    46   16   44 1   
    47   17   45 1   
    48   17   46 1   
    49   18   47 1   
    50   18   48 1   
    51   19   49 1   
    52   20   50 1   
    53   22   51 1   
    54   23   52 1   
@<TRIPOS>SUBSTRUCTURE
     1 MOL         1 TEMP              0 ****  ****    0 ROOT
