@<TRIPOS>MOLECULE
AVX38789_1
   64    67     1     0     0
SMALL
No Charge or Current Charge


@<TRIPOS>ATOM
      1 C1          1.1310   -4.9550    5.1680 ca        1 MOL     -0.107794
      2 C2          0.5850   -5.0960    3.8920 ca        1 MOL     -0.108594
      3 C3          6.4310    1.2410    2.9540 cc        1 MOL     -0.263894
      4 C4          2.3770   -4.3490    5.3300 ca        1 MOL     -0.095294
      5 C5          1.2840   -4.6300    2.7790 ca        1 MOL     -0.104894
      6 C6          1.2320    0.1700    2.7130 ca        1 MOL     -0.128594
      7 C7          0.9420    1.4880    3.0680 ca        1 MOL     -0.152394
      8 C8          6.8220    0.0480    3.6080 cc        1 MOL     -0.234994
      9 C9          5.2150    1.5910    3.4930 cd        1 MOL      0.248006
     10 C10         3.0760   -3.8820    4.2170 ca        1 MOL     -0.107594
     11 C11         1.7190    0.8790    0.4530 ca        1 MOL     -0.072794
     12 C12         2.5300   -4.0230    2.9410 ca        1 MOL     -0.096894
     13 C13         1.6150   -0.1340    1.4060 ca        1 MOL     -0.188294
     14 C14         1.0320    2.5000    2.1110 ca        1 MOL      0.098006
     15 C15         1.4410    2.1990    0.8110 ca        1 MOL      0.071506
     16 C16         5.8180   -0.2460    4.5000 cd        1 MOL      0.197006
     17 C17         4.3750   -3.2530    4.4150 c         1 MOL      0.653106
     18 C18         2.1330    0.5540   -0.9270 c         1 MOL      0.919706
     19 C19        -0.8750    7.6940    3.4750 c         1 MOL      0.910706
     20 C20         1.6160    4.4740    0.3840 c3        1 MOL      0.086306
     21 C21         0.4990    4.6510    1.4040 c3        1 MOL      0.098106
     22 C22         4.3850   -1.5240    0.7700 c3        1 MOL      0.082806
     23 C23         3.2600   -3.5310    1.7260 c3        1 MOL      0.148906
     24 C24         1.9100   -1.5570    1.0570 c3        1 MOL      0.188906
     25 C25         5.6140   -1.3590    5.4870 c3        1 MOL      0.062706
     26 C26        -0.7040    6.2860    2.8910 c3        1 MOL     -0.198494
     27 C27         0.4600    6.0740    1.9420 c3        1 MOL     -0.054494
     28 N1          4.4080   -2.1070    5.2160 n         1 MOL     -0.541494
     29 N2          3.2200   -2.0310    1.5800 n4        1 MOL     -0.700994
     30 O1          3.3850    0.5780   -1.2140 o         1 MOL     -0.778294
     31 O2         -1.8450    7.8610    4.2640 o         1 MOL     -0.846894
     32 O3          5.3890   -3.7190    3.8690 o         1 MOL     -0.623794
     33 O4          1.2250    0.2600   -1.7880 o         1 MOL     -0.850594
     34 O5          0.0010    8.5230    3.0940 o         1 MOL     -0.852994
     35 O6          4.8340    0.6900    4.4360 os        1 MOL     -0.359794
     36 O7          1.5810    3.1530   -0.1630 os        1 MOL     -0.294594
     37 O8          0.7140    3.7700    2.5150 os        1 MOL     -0.301794
     38 H1          0.5880   -5.3180    6.0350 ha        1 MOL      0.142906
     39 H2         -0.3850   -5.5690    3.7670 ha        1 MOL      0.143706
     40 H3          6.9680    1.7780    2.1860 ha        1 MOL      0.168606
     41 H4          2.7920   -4.2460    6.3300 ha        1 MOL      0.150706
     42 H5          0.8490   -4.7440    1.7900 ha        1 MOL      0.141506
     43 H6          1.1530   -0.6140    3.4620 ha        1 MOL      0.110106
     44 H7          0.6340    1.7140    4.0850 ha        1 MOL      0.152206
     45 H8          7.7250   -0.5240    3.4470 ha        1 MOL      0.166406
     46 H9          4.5290    2.4080    3.3230 h4        1 MOL      0.057806
     47 H10         1.4960    5.1760   -0.4480 h1        1 MOL      0.086906
     48 H11         2.6060    4.6400    0.8280 h1        1 MOL      0.057206
     49 H12        -0.4750    4.4050    0.9600 h1        1 MOL      0.061606
     50 H13         4.2860   -1.9200   -0.2420 hx        1 MOL      0.083606
     51 H14         4.3430   -0.4330    0.7700 hx        1 MOL      0.135506
     52 H15         5.3020   -1.8810    1.2430 hx        1 MOL      0.076906
     53 H16         4.3170   -3.8160    1.7580 hx        1 MOL      0.116606
     54 H17         2.8290   -3.9480    0.8100 hx        1 MOL      0.087906
     55 H18         1.1500   -2.2360    1.4620 hx        1 MOL      0.094706
     56 H19         1.9380   -1.7060   -0.0300 hx        1 MOL      0.091206
     57 H20         6.4570   -2.0570    5.4620 h1        1 MOL      0.082406
     58 H21         5.5440   -0.9700    6.5090 h1        1 MOL      0.072906
     59 H22        -1.6270    6.0700    2.3400 hc        1 MOL      0.022206
     60 H23        -0.6490    5.5690    3.7200 hc        1 MOL      0.035906
     61 H24         1.4160    6.2840    2.4190 hc        1 MOL      0.062806
     62 H25         0.3610    6.7390    1.0840 hc        1 MOL      0.062906
     63 H26         3.5400   -1.7340    5.5860 hn        1 MOL      0.348006
     64 H27         3.3380   -1.6430    2.5300 hn        1 MOL      0.487206
@<TRIPOS>BOND
     1    1    2 ar  
     2    1    4 ar  
     3    2    5 ar  
     4    3    8 ar  
     5    3    9 ar  
     6    4   10 ar  
     7    5   12 ar  
     8    6    7 ar  
     9    6   13 ar  
    10    7   14 ar  
    11    8   16 ar  
    12    9   35 ar  
    13   10   12 ar  
    14   10   17 1   
    15   11   13 ar  
    16   11   15 ar  
    17   11   18 1   
    18   12   23 1   
    19   13   24 1   
    20   14   15 ar  
    21   14   37 1   
    22   15   36 1   
    23   16   25 1   
    24   16   35 ar  
    25   17   28 1   
    26   17   32 2   
    27   18   30 1   
    28   18   33 1   
    29   19   26 1   
    30   19   31 1   
    31   19   34 1   
    32   20   21 1   
    33   20   36 1   
    34   21   27 1   
    35   21   37 1   
    36   22   29 1   
    37   23   29 1   
    38   24   29 1   
    39   25   28 1   
    40   26   27 1   
    41    1   38 1   
    42    2   39 1   
    43    3   40 1   
    44    4   41 1   
    45    5   42 1   
    46    6   43 1   
    47    7   44 1   
    48    8   45 1   
    49    9   46 1   
    50   20   47 1   
    51   20   48 1   
    52   21   49 1   
    53   22   50 1   
    54   22   51 1   
    55   22   52 1   
    56   23   53 1   
    57   23   54 1   
    58   24   55 1   
    59   24   56 1   
    60   25   57 1   
    61   25   58 1   
    62   26   59 1   
    63   26   60 1   
    64   27   61 1   
    65   27   62 1   
    66   28   63 1   
    67   29   64 1   
@<TRIPOS>SUBSTRUCTURE
     1 MOL         1 TEMP              0 ****  ****    0 ROOT
