@<TRIPOS>MOLECULE
AVX38753_3
   71    74     1     0     0
SMALL
No Charge or Current Charge


@<TRIPOS>ATOM
      1 C1         -6.1070    0.0450   -5.9340 ca        1 MOL     -0.119003
      2 C2          2.1920    2.5320   -4.4560 ca        1 MOL     -0.108903
      3 C3         -5.2170   -1.0260   -6.0160 ca        1 MOL     -0.127903
      4 C4         -5.7310    1.3030   -6.4050 ca        1 MOL     -0.137503
      5 C5          2.4640    1.7720   -3.3180 ca        1 MOL     -0.104003
      6 C6          1.3520    2.0260   -5.4480 ca        1 MOL     -0.099403
      7 C7         -3.9500   -0.8390   -6.5690 ca        1 MOL     -0.114703
      8 C8         -4.4640    1.4900   -6.9580 ca        1 MOL     -0.115003
      9 C9          1.8960    0.5070   -3.1720 ca        1 MOL     -0.098103
     10 C10        -3.2510   -1.9000   -1.0770 ca        1 MOL     -0.131503
     11 C11        -4.5950   -1.8160   -0.7110 ca        1 MOL     -0.149603
     12 C12         0.7840    0.7600   -5.3020 ca        1 MOL     -0.106203
     13 C13        -3.4110    0.2430   -2.1840 ca        1 MOL     -0.077803
     14 C14        -3.5740    0.4190   -7.0400 ca        1 MOL     -0.126503
     15 C15         1.0560    0.0010   -4.1650 ca        1 MOL     -0.090503
     16 C16        -2.6590   -0.8700   -1.8080 ca        1 MOL     -0.185203
     17 C17        -5.3440   -0.6970   -1.0750 ca        1 MOL      0.101797
     18 C18        -4.7580    0.3220   -1.8290 ca        1 MOL      0.076297
     19 C19        -0.6790   -4.8720   -3.8550 c2        1 MOL     -0.174803
     20 C20        -1.2020   -3.7920   -3.2620 c2        1 MOL     -0.210303
     21 C21        -0.0880    0.2560   -6.3540 c         1 MOL      0.654897
     22 C22        -2.7830    1.3280   -2.9650 c         1 MOL      0.919497
     23 C23        -8.6360    0.5550    1.9980 c         1 MOL      0.907697
     24 C24        -6.8650    1.2510   -2.1330 c3        1 MOL      0.087897
     25 C25        -7.2150    0.6530   -0.7770 c3        1 MOL      0.099897
     26 C26        -2.2100    0.6220   -7.6340 c3        1 MOL      0.131197
     27 C27         0.4590   -1.3640   -3.9820 c3        1 MOL      0.150797
     28 C28        -1.2160   -0.9880   -2.1760 c3        1 MOL      0.187597
     29 C29        -1.7060   -2.5980   -4.0030 c3        1 MOL      0.139897
     30 C30        -9.0800   -0.1480    0.7100 c3        1 MOL     -0.199003
     31 C31        -8.7210    0.5280   -0.5990 c3        1 MOL     -0.049703
     32 N1         -1.2360    1.0030   -6.6370 n         1 MOL     -0.545603
     33 N2         -1.0010   -1.3250   -3.6100 n4        1 MOL     -0.705703
     34 O1         -2.2300    2.3000   -2.3320 o         1 MOL     -0.755103
     35 O2         -8.3860   -0.1870    2.9870 o         1 MOL     -0.845703
     36 O3          0.1850   -0.8030   -6.9440 o         1 MOL     -0.619903
     37 O4         -2.8130    1.2580   -4.2480 o         1 MOL     -0.872403
     38 O5         -8.5620    1.8140    1.9020 o         1 MOL     -0.854303
     39 O6         -5.4490    1.4300   -2.2440 os        1 MOL     -0.293303
     40 O7         -6.6520   -0.6610   -0.6680 os        1 MOL     -0.304903
     41 H1         -7.0940   -0.1020   -5.5050 ha        1 MOL      0.138497
     42 H2          2.6340    3.5180   -4.5700 ha        1 MOL      0.139497
     43 H3         -5.5110   -2.0060   -5.6510 ha        1 MOL      0.141697
     44 H4         -6.4240    2.1360   -6.3420 ha        1 MOL      0.130097
     45 H5          3.1180    2.1670   -2.5460 ha        1 MOL      0.142097
     46 H6          1.1490    2.6270   -6.3300 ha        1 MOL      0.144497
     47 H7         -3.2630   -1.6780   -6.6290 ha        1 MOL      0.137797
     48 H8         -4.1790    2.4740   -7.3220 ha        1 MOL      0.135197
     49 H9          2.1140   -0.0770   -2.2820 ha        1 MOL      0.142297
     50 H10        -2.6720   -2.7720   -0.7830 ha        1 MOL      0.109597
     51 H11        -5.0450   -2.6180   -0.1330 ha        1 MOL      0.151997
     52 H12        -0.3330   -5.7110   -3.2610 ha        1 MOL      0.124897
     53 H13        -0.5870   -4.9390   -4.9330 ha        1 MOL      0.120697
     54 H14        -1.2760   -3.7780   -2.1780 ha        1 MOL      0.142397
     55 H15        -7.1990    0.6120   -2.9610 h1        1 MOL      0.044097
     56 H16        -7.3300    2.2350   -2.2540 h1        1 MOL      0.086397
     57 H17        -6.8040    1.2670    0.0350 h1        1 MOL      0.099897
     58 H18        -1.8580   -0.2970   -8.1150 h1        1 MOL      0.069597
     59 H19        -2.2280    1.4030   -8.4010 h1        1 MOL      0.059297
     60 H20         0.5340   -1.9540   -4.9020 hx        1 MOL      0.103197
     61 H21         0.9720   -1.9170   -3.1880 hx        1 MOL      0.115397
     62 H22        -0.6760   -0.0500   -1.9940 hx        1 MOL      0.115597
     63 H23        -0.7160   -1.7730   -1.5950 hx        1 MOL      0.074697
     64 H24        -2.7670   -2.4410   -3.7880 hx        1 MOL      0.108697
     65 H25        -1.5800   -2.6950   -5.0860 hx        1 MOL      0.099197
     66 H26       -10.1740   -0.2170    0.7620 hc        1 MOL      0.029297
     67 H27        -8.6930   -1.1750    0.7230 hc        1 MOL      0.032797
     68 H28        -9.1570    1.5230   -0.6740 hc        1 MOL      0.064897
     69 H29        -9.0950   -0.0640   -1.4340 hc        1 MOL      0.027897
     70 H30        -1.4430    1.8270   -6.0810 hn        1 MOL      0.336197
     71 H31        -1.4230   -0.5710   -4.1760 hn        1 MOL      0.496697
@<TRIPOS>BOND
     1    1    3 ar  
     2    1    4 ar  
     3    2    5 ar  
     4    2    6 ar  
     5    3    7 ar  
     6    4    8 ar  
     7    5    9 ar  
     8    6   12 ar  
     9    7   14 ar  
    10    8   14 ar  
    11    9   15 ar  
    12   10   11 ar  
    13   10   16 ar  
    14   11   17 ar  
    15   12   15 ar  
    16   12   21 1   
    17   13   16 ar  
    18   13   18 ar  
    19   13   22 1   
    20   14   26 1   
    21   15   27 1   
    22   16   28 1   
    23   17   18 ar  
    24   17   40 1   
    25   18   39 1   
    26   19   20 2   
    27   20   29 1   
    28   21   32 1   
    29   21   36 2   
    30   22   34 1   
    31   22   37 1   
    32   23   30 1   
    33   23   35 1   
    34   23   38 1   
    35   24   25 1   
    36   24   39 1   
    37   25   31 1   
    38   25   40 1   
    39   26   32 1   
    40   27   33 1   
    41   28   33 1   
    42   29   33 1   
    43   30   31 1   
    44    1   41 1   
    45    2   42 1   
    46    3   43 1   
    47    4   44 1   
    48    5   45 1   
    49    6   46 1   
    50    7   47 1   
    51    8   48 1   
    52    9   49 1   
    53   10   50 1   
    54   11   51 1   
    55   19   52 1   
    56   19   53 1   
    57   20   54 1   
    58   24   55 1   
    59   24   56 1   
    60   25   57 1   
    61   26   58 1   
    62   26   59 1   
    63   27   60 1   
    64   27   61 1   
    65   28   62 1   
    66   28   63 1   
    67   29   64 1   
    68   29   65 1   
    69   30   66 1   
    70   30   67 1   
    71   31   68 1   
    72   31   69 1   
    73   32   70 1   
    74   33   71 1   
@<TRIPOS>SUBSTRUCTURE
     1 MOL         1 TEMP              0 ****  ****    0 ROOT
