@<TRIPOS>MOLECULE
AVX38743_5
   47    50     1     0     0
SMALL
No Charge or Current Charge


@<TRIPOS>ATOM
      1 C1          2.0530    3.3400    2.1000 ca        1 MOL     -0.129704
      2 C2          1.2800    4.0850    3.0020 ca        1 MOL     -0.149804
      3 C3          1.5160    2.2230    1.4560 ca        1 MOL     -0.078404
      4 C4          2.0370   -0.6830   -0.1480 ca        1 MOL     -0.147904
      5 C5         -0.0410    3.7220    3.2710 ca        1 MOL     -0.136604
      6 C6          3.2360   -0.6020   -0.8580 ca        1 MOL     -0.168104
      7 C7          0.2030    1.8650    1.7290 ca        1 MOL     -0.008204
      8 C8          0.9300    0.0620   -0.5570 ca        1 MOL     -0.095904
      9 C9          1.0150    0.8800   -1.6840 ca        1 MOL     -0.068304
     10 C10        -0.5650    2.6070    2.6330 ca        1 MOL     -0.096404
     11 C11         3.3250    0.2270   -1.9770 ca        1 MOL      0.040696
     12 C12         2.2090    0.9510   -2.4020 ca        1 MOL      0.079996
     13 C13        -0.6060    0.7580    1.2230 ce        1 MOL     -0.112504
     14 C14        -0.3000   -0.0460    0.2170 cf        1 MOL      0.001996
     15 C15        -0.1570    1.6650   -2.1280 c         1 MOL      0.925996
     16 C16         2.2210    3.7370   -7.3730 c         1 MOL      0.906996
     17 C17        -1.9670    2.0850    2.7500 c3        1 MOL     -0.058404
     18 C18         4.6160    1.3960   -3.5120 c3        1 MOL      0.094896
     19 C19        -1.8910    0.7330    2.0180 c3        1 MOL      0.179396
     20 C20         3.3510    1.4890   -4.3560 c3        1 MOL      0.105096
     21 C21         2.2300    2.6640   -6.2780 c3        1 MOL     -0.190604
     22 C22         3.4460    2.6180   -5.3720 c3        1 MOL     -0.062604
     23 O1         -0.9720    1.1290   -2.9630 o         1 MOL     -0.824004
     24 O2          1.2050    3.7690   -8.1210 o         1 MOL     -0.863104
     25 O3         -0.3130    2.8520   -1.6610 o         1 MOL     -0.812804
     26 O4          3.2460    4.4770   -7.3810 o         1 MOL     -0.857504
     27 O5          4.5340    0.2810   -2.6200 os        1 MOL     -0.347004
     28 O6          2.2240    1.7560   -3.5100 os        1 MOL     -0.282704
     29 O7         -1.8130   -0.3240    2.9710 oh        1 MOL     -0.609104
     30 H1          3.0800    3.6350    1.9020 ha        1 MOL      0.126596
     31 H2          1.7120    4.9530    3.4920 ha        1 MOL      0.105896
     32 H3          2.1280    1.6550    0.7620 ha        1 MOL      0.170196
     33 H4          1.9850   -1.3280    0.7250 ha        1 MOL      0.108496
     34 H5         -0.6410    4.3050    3.9610 ha        1 MOL      0.108296
     35 H6          4.0960   -1.1780   -0.5280 ha        1 MOL      0.119496
     36 H7         -0.9960   -0.8120   -0.0800 ha        1 MOL      0.135496
     37 H8         -2.2680    1.9820    3.7970 hc        1 MOL      0.042796
     38 H9         -2.6450    2.7690    2.2290 hc        1 MOL      0.046696
     39 H10         5.4950    1.2440   -4.1470 h1        1 MOL      0.065096
     40 H11         4.7790    2.3050   -2.9180 h1        1 MOL      0.048196
     41 H12        -2.7720    0.5680    1.3880 h1        1 MOL      0.055596
     42 H13         3.1650    0.5430   -4.8820 h1        1 MOL      0.059296
     43 H14         2.1630    1.6990   -6.7960 hc        1 MOL      0.020696
     44 H15         1.3170    2.7690   -5.6780 hc        1 MOL      0.032196
     45 H16         3.5840    3.5520   -4.8320 hc        1 MOL      0.064696
     46 H17         4.3410    2.4400   -5.9670 hc        1 MOL      0.054896
     47 H18        -2.6490   -0.3140    3.4620 ho        1 MOL      0.399996
@<TRIPOS>BOND
     1    1    2 ar  
     2    1    3 ar  
     3    2    5 ar  
     4    3    7 ar  
     5    4    6 ar  
     6    4    8 ar  
     7    5   10 ar  
     8    6   11 ar  
     9    7   10 ar  
    10    7   13 1   
    11    8    9 ar  
    12    8   14 1   
    13    9   12 ar  
    14    9   15 1   
    15   10   17 1   
    16   11   12 ar  
    17   11   27 1   
    18   12   28 1   
    19   13   14 2   
    20   13   19 1   
    21   15   23 1   
    22   15   25 1   
    23   16   21 1   
    24   16   24 1   
    25   16   26 1   
    26   17   19 1   
    27   18   20 1   
    28   18   27 1   
    29   19   29 1   
    30   20   22 1   
    31   20   28 1   
    32   21   22 1   
    33    1   30 1   
    34    2   31 1   
    35    3   32 1   
    36    4   33 1   
    37    5   34 1   
    38    6   35 1   
    39   14   36 1   
    40   17   37 1   
    41   17   38 1   
    42   18   39 1   
    43   18   40 1   
    44   19   41 1   
    45   20   42 1   
    46   21   43 1   
    47   21   44 1   
    48   22   45 1   
    49   22   46 1   
    50   29   47 1   
@<TRIPOS>SUBSTRUCTURE
     1 MOL         1 TEMP              0 ****  ****    0 ROOT
