@<TRIPOS>MOLECULE
AVX-17631_0
   16    17     1     0     0
SMALL
No Charge or Current Charge


@<TRIPOS>ATOM
      1 C1         -1.2010    1.0900   -1.4150 ca        1 MOL     -0.158100
      2 C2         -0.8800   -0.0290   -0.6380 ca        1 MOL     -0.092600
      3 C3         -2.3260    1.0930   -2.2510 ca        1 MOL     -0.059100
      4 C4         -1.6680   -1.1840   -0.6660 ca        1 MOL     -0.124100
      5 C5         -3.1260   -0.0590   -2.2890 ca        1 MOL     -0.243300
      6 C6         -2.7770   -1.1460   -1.5070 ca        1 MOL      0.067200
      7 C7         -4.2930   -0.4890   -2.9500 cc        1 MOL      0.550200
      8 N1         -4.6420   -1.7340   -2.6100 nd        1 MOL     -0.458800
      9 N2         -4.9580    0.3070   -3.8260 nh        1 MOL     -0.858300
     10 O1         -3.6800   -2.1470   -1.6960 os        1 MOL     -0.010900
     11 H1         -0.5680    1.9720   -1.3700 ha        1 MOL      0.138000
     12 H2         -0.0000    0.0000    0.0010 ha        1 MOL      0.139000
     13 H3         -2.5620    1.9680   -2.8480 ha        1 MOL      0.138900
     14 H4         -1.4270   -2.0540   -0.0690 ha        1 MOL      0.157900
     15 H5         -4.6630    1.2740   -4.0090 hn        1 MOL      0.403100
     16 H6         -5.8340    0.0090   -4.2700 hn        1 MOL      0.410900
@<TRIPOS>BOND
     1    1    2 ar  
     2    1    3 ar  
     3    2    4 ar  
     4    3    5 ar  
     5    4    6 ar  
     6    5    6 ar  
     7    5    7 1   
     8    6   10 1   
     9    7    8 2   
    10    7    9 1   
    11    8   10 1   
    12    1   11 1   
    13    2   12 1   
    14    3   13 1   
    15    4   14 1   
    16    9   15 1   
    17    9   16 1   
@<TRIPOS>SUBSTRUCTURE
     1 MOL         1 TEMP              0 ****  ****    0 ROOT
