@<TRIPOS>MOLECULE
AVX38782_1
   71    74     1     0     0
SMALL
No Charge or Current Charge


@<TRIPOS>ATOM
      1 C1         -1.7850   -7.4290   -2.3230 ca        1 MOL     -0.111400
      2 C2         -1.3290   -7.0680   -1.0550 ca        1 MOL     -0.109500
      3 C3         -3.0490   -7.0220   -2.7510 ca        1 MOL     -0.099200
      4 C4         -2.1360   -6.3010   -0.2160 ca        1 MOL     -0.105100
      5 C5         -7.3810   -7.7950    2.7200 ca        1 MOL     -0.131400
      6 C6         -7.6590   -8.8770    3.5570 ca        1 MOL     -0.145400
      7 C7         -3.8560   -6.2550   -1.9120 ca        1 MOL     -0.104700
      8 C8         -5.5090   -8.9980    1.7750 ca        1 MOL     -0.077600
      9 C9         -3.4000   -5.8940   -0.6440 ca        1 MOL     -0.090600
     10 C10        -6.3050   -7.8540    1.8350 ca        1 MOL     -0.175700
     11 C11        -6.8540  -10.0160    3.5080 ca        1 MOL      0.095700
     12 C12        -5.7940  -10.0850    2.6020 ca        1 MOL      0.077700
     13 C13        -3.5580   -3.3650    3.5550 c2        1 MOL     -0.175000
     14 C14        -3.9630   -4.6270    3.3750 c2        1 MOL     -0.210000
     15 C15        -5.1720   -5.8450   -2.3840 c         1 MOL      0.644500
     16 C16        -4.3750   -9.0590    0.8300 c         1 MOL      0.918400
     17 C17        -7.6260  -14.0500    7.4580 c         1 MOL      0.910600
     18 C18       -10.2710   -7.2430   -1.4320 cy        1 MOL     -0.094500
     19 C19        -8.8680   -7.8730   -1.5480 cy        1 MOL     -0.092200
     20 C20        -9.8460   -6.2760   -2.5560 cy        1 MOL     -0.088200
     21 C21        -5.5680  -12.3400    3.1030 c3        1 MOL      0.087100
     22 C22        -8.3890   -6.5180   -2.1090 cy        1 MOL     -0.109300
     23 C23        -6.0950  -11.9850    4.4870 c3        1 MOL      0.099800
     24 C24        -4.2480   -5.0700    0.2800 c3        1 MOL      0.160300
     25 C25        -6.0300   -6.6740    0.9590 c3        1 MOL      0.192200
     26 C26        -5.1760   -5.0090    2.5920 c3        1 MOL      0.146800
     27 C27        -7.0880  -12.8860    6.6150 c3        1 MOL     -0.197700
     28 C28        -7.4030   -6.6170   -3.2220 c3        1 MOL      0.096800
     29 C29        -6.6420  -13.2110    5.2030 c3        1 MOL     -0.055600
     30 N1         -6.0710   -6.8630   -2.7170 n         1 MOL     -0.549600
     31 N2         -4.8550   -5.8750    1.4000 n4        1 MOL     -0.728500
     32 O1         -4.5850   -9.5180   -0.3520 o         1 MOL     -0.740600
     33 O2         -7.9960  -13.7710    8.6310 o         1 MOL     -0.847800
     34 O3         -5.4520   -4.6390   -2.4970 o         1 MOL     -0.603900
     35 O4         -3.2220   -8.6520    1.2260 o         1 MOL     -0.842900
     36 O5         -7.6430  -15.1610    6.8550 o         1 MOL     -0.852200
     37 O6         -4.9890  -11.1880    2.4830 os        1 MOL     -0.298800
     38 O7         -7.1640  -11.0360    4.3680 os        1 MOL     -0.302700
     39 H1         -1.1560   -8.0260   -2.9770 ha        1 MOL      0.138800
     40 H2         -0.3450   -7.3850   -0.7220 ha        1 MOL      0.141300
     41 H3         -3.3930   -7.3110   -3.7410 ha        1 MOL      0.145200
     42 H4         -1.7710   -6.0250    0.7700 ha        1 MOL      0.140600
     43 H5         -8.0080   -6.9090    2.7690 ha        1 MOL      0.110200
     44 H6         -8.4920   -8.8180    4.2510 ha        1 MOL      0.151200
     45 H7         -2.6650   -3.1520    4.1310 ha        1 MOL      0.126500
     46 H8         -4.1050   -2.5280    3.1350 ha        1 MOL      0.117000
     47 H9         -3.3760   -5.4300    3.8130 ha        1 MOL      0.147100
     48 H10       -11.0890   -7.9180   -1.7090 hc        1 MOL      0.052600
     49 H11       -10.5050   -6.7790   -0.4700 hc        1 MOL      0.047200
     50 H12        -8.4210   -8.1330   -0.5810 hc        1 MOL      0.052400
     51 H13        -8.7890   -8.7360   -2.2150 hc        1 MOL      0.062900
     52 H14       -10.1050   -6.5850   -3.5720 hc        1 MOL      0.049700
     53 H15       -10.1880   -5.2450   -2.4030 hc        1 MOL      0.047800
     54 H16        -4.7850  -13.1030    3.1710 h1        1 MOL      0.085500
     55 H17        -6.3610  -12.7250    2.4490 h1        1 MOL      0.059400
     56 H18        -8.0380   -5.8190   -1.3420 hc        1 MOL      0.062600
     57 H19        -5.3040  -11.5300    5.0990 h1        1 MOL      0.060700
     58 H20        -3.6630   -4.2710    0.7470 hx        1 MOL      0.106800
     59 H21        -5.0800   -4.6030   -0.2590 hx        1 MOL      0.105200
     60 H22        -5.8260   -6.9800   -0.0750 hx        1 MOL      0.120100
     61 H23        -6.8830   -5.9840    0.9350 hx        1 MOL      0.059300
     62 H24        -5.6690   -4.1150    2.1990 hx        1 MOL      0.085500
     63 H25        -5.8990   -5.5710    3.1920 hx        1 MOL      0.101800
     64 H26        -6.2190  -12.4940    7.1580 hc        1 MOL      0.021900
     65 H27        -7.8430  -12.0900    6.5990 hc        1 MOL      0.035200
     66 H28        -7.3760   -5.6850   -3.7950 h1        1 MOL      0.061100
     67 H29        -7.6600   -7.4380   -3.8970 h1        1 MOL      0.061700
     68 H30        -7.4540  -13.6210    4.6050 hc        1 MOL      0.061800
     69 H31        -5.8410  -13.9500    5.2300 hc        1 MOL      0.065100
     70 H32        -5.7680   -7.8300   -2.6660 hn        1 MOL      0.333700
     71 H33        -4.1240   -6.5360    1.7100 hn        1 MOL      0.492300
@<TRIPOS>BOND
     1    1    2 ar  
     2    1    3 ar  
     3    2    4 ar  
     4    3    7 ar  
     5    4    9 ar  
     6    5    6 ar  
     7    5   10 ar  
     8    6   11 ar  
     9    7    9 ar  
    10    7   15 1   
    11    8   10 ar  
    12    8   12 ar  
    13    8   16 1   
    14    9   24 1   
    15   10   25 1   
    16   11   12 ar  
    17   11   38 1   
    18   12   37 1   
    19   13   14 2   
    20   14   26 1   
    21   15   30 1   
    22   15   34 2   
    23   16   32 1   
    24   16   35 1   
    25   17   27 1   
    26   17   33 1   
    27   17   36 1   
    28   18   19 1   
    29   18   20 1   
    30   19   22 1   
    31   20   22 1   
    32   21   23 1   
    33   21   37 1   
    34   22   28 1   
    35   23   29 1   
    36   23   38 1   
    37   24   31 1   
    38   25   31 1   
    39   26   31 1   
    40   27   29 1   
    41   28   30 1   
    42    1   39 1   
    43    2   40 1   
    44    3   41 1   
    45    4   42 1   
    46    5   43 1   
    47    6   44 1   
    48   13   45 1   
    49   13   46 1   
    50   14   47 1   
    51   18   48 1   
    52   18   49 1   
    53   19   50 1   
    54   19   51 1   
    55   20   52 1   
    56   20   53 1   
    57   21   54 1   
    58   21   55 1   
    59   22   56 1   
    60   23   57 1   
    61   24   58 1   
    62   24   59 1   
    63   25   60 1   
    64   25   61 1   
    65   26   62 1   
    66   26   63 1   
    67   27   64 1   
    68   27   65 1   
    69   28   66 1   
    70   28   67 1   
    71   29   68 1   
    72   29   69 1   
    73   30   70 1   
    74   31   71 1   
@<TRIPOS>SUBSTRUCTURE
     1 MOL         1 TEMP              0 ****  ****    0 ROOT
