@<TRIPOS>MOLECULE
AVX-17679_0
   19    20     1     0     0
SMALL
No Charge or Current Charge


@<TRIPOS>ATOM
      1 C1         -1.2010    1.0900   -1.4150 ca        1 MOL     -0.179400
      2 C2         -0.8800   -0.0290   -0.6380 ca        1 MOL     -0.113000
      3 C3         -2.3260    1.0930   -2.2510 ca        1 MOL     -0.039900
      4 C4         -1.6680   -1.1840   -0.6660 ca        1 MOL     -0.146400
      5 C5         -3.1260   -0.0590   -2.2890 ca        1 MOL     -0.204600
      6 C6         -2.7770   -1.1460   -1.5070 ca        1 MOL      0.047000
      7 C7         -4.2930   -0.4890   -2.9500 cc        1 MOL      0.449400
      8 C8         -4.6090    0.0100   -5.3460 c         1 MOL      0.925500
      9 C9         -5.1130    0.2580   -3.9180 c3        1 MOL     -0.251300
     10 N1         -4.6420   -1.7340   -2.6100 nd        1 MOL     -0.430900
     11 O1         -4.6950   -1.1860   -5.7460 o         1 MOL     -0.820100
     12 O2         -4.1750    1.0320   -5.9490 o         1 MOL     -0.825000
     13 O3         -3.6800   -2.1470   -1.6960 os        1 MOL     -0.042900
     14 H1         -0.5670    1.9720   -1.3690 ha        1 MOL      0.121500
     15 H2         -0.0000    0.0010    0.0000 ha        1 MOL      0.114900
     16 H3         -2.5630    1.9670   -2.8480 ha        1 MOL      0.156800
     17 H4         -1.4270   -2.0550   -0.0690 ha        1 MOL      0.137400
     18 H5         -6.1830   -0.0240   -3.8610 hc        1 MOL      0.047900
     19 H6         -5.1000    1.3480   -3.7180 hc        1 MOL      0.053100
@<TRIPOS>BOND
     1    1    2 ar  
     2    1    3 ar  
     3    2    4 ar  
     4    3    5 ar  
     5    4    6 ar  
     6    5    6 ar  
     7    5    7 1   
     8    6   13 1   
     9    7    9 1   
    10    7   10 2   
    11    8    9 1   
    12    8   11 1   
    13    8   12 1   
    14   10   13 1   
    15    1   14 1   
    16    2   15 1   
    17    3   16 1   
    18    4   17 1   
    19    9   18 1   
    20    9   19 1   
@<TRIPOS>SUBSTRUCTURE
     1 MOL         1 TEMP              0 ****  ****    0 ROOT
