@<TRIPOS>MOLECULE
AVX-17558_3
   53    56     1     0     0
SMALL
No Charge or Current Charge


@<TRIPOS>ATOM
      1 C1          0.8230    2.4970    0.7610 ca        1 MOL     -0.139998
      2 C2         -0.4670    2.5710    0.2130 ca        1 MOL     -0.127198
      3 C3          1.5390    1.3000    0.7340 ca        1 MOL     -0.128098
      4 C4         -1.0590    1.4490   -0.3710 ca        1 MOL     -0.094198
      5 C5         -2.4800   -3.8560   -1.4740 ca        1 MOL     -0.157798
      6 C6         -2.8340   -4.8740   -2.3630 ca        1 MOL     -0.155798
      7 C7         -3.0750   -2.1580   -3.1150 ca        1 MOL     -0.067498
      8 C8          0.9390    0.1890    0.1650 ca        1 MOL     -0.111098
      9 C9         -0.3500    0.2580   -0.3850 ca        1 MOL     -0.079898
     10 C10        -2.5990   -2.5060   -1.8480 ca        1 MOL     -0.082698
     11 C11        -3.3000   -4.5040   -3.6080 ca        1 MOL      0.045002
     12 C12        -3.4170   -3.1820   -3.9730 ca        1 MOL      0.071602
     13 C13        -3.2100   -0.7520   -3.5300 c         1 MOL      0.919602
     14 C14         0.1250   -3.7720    1.4990 c         1 MOL      0.650702
     15 C15         1.5230   -1.1830   -0.0010 c3        1 MOL     -0.050698
     16 C16        -4.0660   -4.4150   -5.6290 c3        1 MOL      0.317302
     17 C17        -0.7360   -1.0680   -0.9830 c3        1 MOL     -0.033598
     18 C18         0.2560   -2.0220   -0.2630 c3        1 MOL      0.098002
     19 C19        -2.2050   -1.4450   -0.8550 c3        1 MOL     -0.020098
     20 C20        -0.5740   -4.0680    2.8140 c3        1 MOL     -0.171198
     21 C21        -0.1650   -5.4150    3.4030 c3        1 MOL     -0.102998
     22 C22        -0.9140   -5.6970    4.6970 c3        1 MOL      0.093302
     23 N1         -0.2620   -2.5450    0.9850 n         1 MOL     -0.532598
     24 N2         -0.4520   -6.9900    5.2540 n4        1 MOL     -0.839498
     25 O1         -4.3230   -0.1440   -3.3040 o         1 MOL     -0.809098
     26 O2         -2.2120   -0.1770   -4.1050 o         1 MOL     -0.802698
     27 O3          0.9290   -4.5390    0.9760 o         1 MOL     -0.618598
     28 O4         -3.6910   -5.3510   -4.5980 os        1 MOL     -0.354698
     29 O5         -3.8960   -3.0360   -5.2390 os        1 MOL     -0.305998
     30 H1          1.2690    3.3830    1.2060 ha        1 MOL      0.123802
     31 H2         -1.0070    3.5140    0.2370 ha        1 MOL      0.133102
     32 H3          2.5390    1.2460    1.1490 ha        1 MOL      0.122302
     33 H4         -2.0500    1.5210   -0.8060 ha        1 MOL      0.167502
     34 H5         -2.1090   -4.1180   -0.4860 ha        1 MOL      0.094002
     35 H6         -2.7430   -5.9160   -2.0790 ha        1 MOL      0.124602
     36 H7          2.1850   -1.1910   -0.8740 hc        1 MOL      0.072602
     37 H8          2.0710   -1.5090    0.8880 hc        1 MOL      0.044502
     38 H9         -3.4530   -4.6060   -6.5170 h2        1 MOL      0.060002
     39 H10        -5.1190   -4.5790   -5.8860 h2        1 MOL      0.059002
     40 H11        -0.4710   -1.0320   -2.0490 hc        1 MOL      0.125302
     41 H12         0.4810   -2.8970   -0.8820 h1        1 MOL      0.095502
     42 H13        -2.8280   -0.5540   -0.9970 hc        1 MOL      0.106802
     43 H14        -2.4080   -1.7970    0.1640 hc        1 MOL      0.005202
     44 H15        -1.6570   -4.0500    2.6370 hc        1 MOL      0.078602
     45 H16        -0.3340   -3.2630    3.5190 hc        1 MOL      0.077402
     46 H17         0.9170   -5.4230    3.5890 hc        1 MOL      0.083702
     47 H18        -0.3630   -6.2120    2.6750 hc        1 MOL      0.084202
     48 H19        -0.7190   -4.9350    5.4570 hx        1 MOL      0.120202
     49 H20        -1.9920   -5.7880    4.5350 hx        1 MOL      0.117902
     50 H21        -0.9610   -1.9950    1.4710 hn        1 MOL      0.315202
     51 H22        -0.9150   -7.1930    6.1470 hn        1 MOL      0.457902
     52 H23         0.5610   -6.9780    5.4200 hn        1 MOL      0.461902
     53 H24        -0.6570   -7.7630    4.6110 hn        1 MOL      0.459302
@<TRIPOS>BOND
     1    1    2 ar  
     2    1    3 ar  
     3    2    4 ar  
     4    3    8 ar  
     5    4    9 ar  
     6    5    6 ar  
     7    5   10 ar  
     8    6   11 ar  
     9    7   10 ar  
    10    7   12 ar  
    11    7   13 1   
    12    8    9 ar  
    13    8   15 1   
    14    9   17 1   
    15   10   19 1   
    16   11   12 ar  
    17   11   28 1   
    18   12   29 1   
    19   13   25 1   
    20   13   26 1   
    21   14   20 1   
    22   14   23 1   
    23   14   27 2   
    24   15   18 1   
    25   16   28 1   
    26   16   29 1   
    27   17   18 1   
    28   17   19 1   
    29   18   23 1   
    30   20   21 1   
    31   21   22 1   
    32   22   24 1   
    33    1   30 1   
    34    2   31 1   
    35    3   32 1   
    36    4   33 1   
    37    5   34 1   
    38    6   35 1   
    39   15   36 1   
    40   15   37 1   
    41   16   38 1   
    42   16   39 1   
    43   17   40 1   
    44   18   41 1   
    45   19   42 1   
    46   19   43 1   
    47   20   44 1   
    48   20   45 1   
    49   21   46 1   
    50   21   47 1   
    51   22   48 1   
    52   22   49 1   
    53   23   50 1   
    54   24   51 1   
    55   24   52 1   
    56   24   53 1   
@<TRIPOS>SUBSTRUCTURE
     1 MOL         1 TEMP              0 ****  ****    0 ROOT
