@<TRIPOS>MOLECULE
AVX-17260_0
   35    38     1     0     0
SMALL
No Charge or Current Charge


@<TRIPOS>ATOM
      1 C1         -0.8240    4.2080   -0.5560 ca        1 MOL     -0.168694
      2 C2         -1.4700    4.7480   -1.6830 ca        1 MOL     -0.108594
      3 C3          0.5540    3.9680   -0.5650 ca        1 MOL     -0.066194
      4 C4          5.9090    5.0760   -2.0990 ca        1 MOL     -0.141794
      5 C5         -0.7500    5.0580   -2.8380 ca        1 MOL     -0.185194
      6 C6          7.2450    4.6860   -2.2180 ca        1 MOL     -0.146294
      7 C7          5.5390    3.4270   -0.3470 ca        1 MOL     -0.064994
      8 C8          1.2620    4.2800   -1.7100 ca        1 MOL     -0.124694
      9 C9          5.0610    4.4500   -1.1690 ca        1 MOL     -0.076794
     10 C10         0.6080    4.8120   -2.8200 ca        1 MOL      0.054906
     11 C11         7.6930    3.6740   -1.3950 ca        1 MOL      0.036606
     12 C12         6.8630    3.0610   -0.4840 ca        1 MOL      0.061706
     13 C13         2.8170    4.6720   -3.4550 c         1 MOL      0.701206
     14 C14         4.6720    2.7560    0.6360 c         1 MOL      0.920006
     15 C15         8.8260    2.1630   -0.3390 c3        1 MOL      0.319006
     16 C16         2.7240    4.1250   -2.0170 c3        1 MOL     -0.080494
     17 C17         3.6270    4.9060   -1.0780 c3        1 MOL     -0.015094
     18 N1          1.5230    5.0390   -3.8420 n         1 MOL     -0.489994
     19 O1          4.6000    3.2370    1.8280 o         1 MOL     -0.812294
     20 O2          3.8390    4.7600   -4.1180 o         1 MOL     -0.591494
     21 O3          4.0150    1.7110    0.2700 o         1 MOL     -0.813394
     22 O4          8.9550    3.1650   -1.3680 os        1 MOL     -0.358794
     23 O5          7.5010    2.0920    0.2270 os        1 MOL     -0.313894
     24 H1         -1.4050    3.9720    0.3320 ha        1 MOL      0.126206
     25 H2         -2.5420    4.9260   -1.6510 ha        1 MOL      0.115406
     26 H3          1.0460    3.5460    0.3050 ha        1 MOL      0.155806
     27 H4          5.5290    5.8720   -2.7360 ha        1 MOL      0.117206
     28 H5         -1.2450    5.4740   -3.7080 ha        1 MOL      0.125606
     29 H6          7.9020    5.1670   -2.9340 ha        1 MOL      0.129806
     30 H7          9.0770    1.1860   -0.7670 h2        1 MOL      0.049606
     31 H8          9.5380    2.3890    0.4630 h2        1 MOL      0.049906
     32 H9          2.9890    3.0620   -2.0380 hc        1 MOL      0.130106
     33 H10         3.2720    4.7990   -0.0460 hc        1 MOL      0.064306
     34 H11         3.5670    5.9770   -1.3090 hc        1 MOL      0.077906
     35 H12         1.2840    5.4210   -4.7490 hn        1 MOL      0.323406
@<TRIPOS>BOND
     1    1    2 ar  
     2    1    3 ar  
     3    2    5 ar  
     4    3    8 ar  
     5    4    6 ar  
     6    4    9 ar  
     7    5   10 ar  
     8    6   11 ar  
     9    7    9 ar  
    10    7   12 ar  
    11    7   14 1   
    12    8   10 ar  
    13    8   16 1   
    14    9   17 1   
    15   10   18 1   
    16   11   12 ar  
    17   11   22 1   
    18   12   23 1   
    19   13   16 1   
    20   13   18 1   
    21   13   20 2   
    22   14   19 1   
    23   14   21 1   
    24   15   22 1   
    25   15   23 1   
    26   16   17 1   
    27    1   24 1   
    28    2   25 1   
    29    3   26 1   
    30    4   27 1   
    31    5   28 1   
    32    6   29 1   
    33   15   30 1   
    34   15   31 1   
    35   16   32 1   
    36   17   33 1   
    37   17   34 1   
    38   18   35 1   
@<TRIPOS>SUBSTRUCTURE
     1 MOL         1 TEMP              0 ****  ****    0 ROOT
