@<TRIPOS>MOLECULE
AVX-17543_0
   57    58     1     0     0
SMALL
No Charge or Current Charge


@<TRIPOS>ATOM
      1 C1         -1.1570   -3.0780    0.8670 ca        1 MOL     -0.161597
      2 C2         -1.1150   -4.1480   -0.0300 ca        1 MOL     -0.156297
      3 C3         -2.4820   -1.7630   -0.6970 ca        1 MOL     -0.082296
      4 C4         -1.8370   -1.8920    0.5350 ca        1 MOL     -0.059097
      5 C5         -1.7600   -3.9950   -1.2400 ca        1 MOL      0.024103
      6 C6         -2.4260   -2.8350   -1.5650 ca        1 MOL      0.064603
      7 C7         -3.2020   -0.5340   -1.0670 c         1 MOL      0.925303
      8 C8          2.0600   -0.4100   -0.3160 c         1 MOL      0.649304
      9 C9         -2.6080   -4.2180   -3.2190 c3        1 MOL      0.319203
     10 C10        -1.3520    2.4050    4.6730 c3        1 MOL     -0.090297
     11 C11        -1.8540   -0.7630    1.5390 c3        1 MOL     -0.040296
     12 C12         2.3990   -1.1180   -1.6170 c3        1 MOL     -0.158896
     13 C13        -1.3950    1.7150    3.3170 c3        1 MOL     -0.087796
     14 C14         3.5070   -2.1610   -1.4800 c3        1 MOL     -0.070397
     15 C15         3.1460   -3.2680   -0.4830 c3        1 MOL     -0.093197
     16 C16         4.2860   -4.2830   -0.3500 c3        1 MOL     -0.115497
     17 C17        -0.4660    0.4980    3.2810 c3        1 MOL     -0.072797
     18 C18         0.1420    0.6940    0.8320 c3        1 MOL      0.090504
     19 C19         3.9870   -5.4040    0.6380 c3        1 MOL      0.105204
     20 C20        -0.4520   -0.2290    1.9150 c3        1 MOL     -0.081496
     21 N1          0.7290   -0.0200   -0.2800 n         1 MOL     -0.537497
     22 N2          2.7910   -6.1700    0.2160 n4        1 MOL     -0.842496
     23 O1         -4.4510   -0.4340   -0.7710 o         1 MOL     -0.775096
     24 O2         -2.5580    0.4020   -1.6750 o         1 MOL     -0.838796
     25 O3          2.8830   -0.2010    0.5710 o         1 MOL     -0.660096
     26 O4         -1.8270   -4.9230   -2.2330 os        1 MOL     -0.366297
     27 O5         -2.9920   -2.8920   -2.8010 os        1 MOL     -0.309296
     28 H1         -0.6570   -3.1700    1.8280 ha        1 MOL      0.121504
     29 H2         -0.5920   -5.0630    0.2210 ha        1 MOL      0.121903
     30 H3         -2.0210   -4.1390   -4.1410 h2        1 MOL      0.043903
     31 H4         -3.5160   -4.7960   -3.4270 h2        1 MOL      0.062303
     32 H5         -0.3350    2.7280    4.9170 hc        1 MOL      0.024803
     33 H6         -2.0050    3.2830    4.6870 hc        1 MOL      0.031803
     34 H7         -1.6870    1.7180    5.4570 hc        1 MOL      0.027904
     35 H8         -2.4820    0.0570    1.1690 hc        1 MOL      0.077104
     36 H9         -2.3680   -1.1430    2.4300 hc        1 MOL      0.056703
     37 H10         1.4920   -1.5790   -2.0270 hc        1 MOL      0.073503
     38 H11         2.7250   -0.3460   -2.3250 hc        1 MOL      0.065304
     39 H12        -2.4250    1.4060    3.1050 hc        1 MOL      0.053204
     40 H13        -1.1060    2.4420    2.5510 hc        1 MOL      0.047904
     41 H14         3.6790   -2.6140   -2.4650 hc        1 MOL      0.059903
     42 H15         4.4470   -1.6820   -1.1810 hc        1 MOL      0.069003
     43 H16         2.2370   -3.7810   -0.8210 hc        1 MOL      0.034703
     44 H17         2.9240   -2.8260    0.4930 hc        1 MOL      0.063904
     45 H18         4.4760   -4.7370   -1.3310 hc        1 MOL      0.072403
     46 H19         5.2080   -3.7660   -0.0580 hc        1 MOL      0.098404
     47 H20        -0.7940   -0.2090    4.0540 hc        1 MOL      0.037304
     48 H21         0.5500    0.8110    3.5510 hc        1 MOL      0.033003
     49 H22        -0.6350    1.3470    0.4200 h1        1 MOL      0.078504
     50 H23         0.9190    1.3450    1.2470 h1        1 MOL      0.052504
     51 H24         4.8140   -6.1160    0.7170 hx        1 MOL      0.104204
     52 H25         3.7630   -4.9980    1.6290 hx        1 MOL      0.108703
     53 H26         0.2340   -1.0830    2.0060 hc        1 MOL      0.059804
     54 H27         0.1370   -0.2480   -1.0730 hn        1 MOL      0.357403
     55 H28         2.5390   -5.9550   -0.7550 hn        1 MOL      0.465104
     56 H29         1.9820   -5.9440    0.8070 hn        1 MOL      0.464604
     57 H30         2.9570   -7.1800    0.2830 hn        1 MOL      0.454004
@<TRIPOS>BOND
     1    1    2 ar  
     2    1    4 ar  
     3    2    5 ar  
     4    3    4 ar  
     5    3    6 ar  
     6    3    7 1   
     7    4   11 1   
     8    5    6 ar  
     9    5   26 1   
    10    6   27 1   
    11    7   23 1   
    12    7   24 1   
    13    8   12 1   
    14    8   21 1   
    15    8   25 2   
    16    9   26 1   
    17    9   27 1   
    18   10   13 1   
    19   11   20 1   
    20   12   14 1   
    21   13   17 1   
    22   14   15 1   
    23   15   16 1   
    24   16   19 1   
    25   17   20 1   
    26   18   20 1   
    27   18   21 1   
    28   19   22 1   
    29    1   28 1   
    30    2   29 1   
    31    9   30 1   
    32    9   31 1   
    33   10   32 1   
    34   10   33 1   
    35   10   34 1   
    36   11   35 1   
    37   11   36 1   
    38   12   37 1   
    39   12   38 1   
    40   13   39 1   
    41   13   40 1   
    42   14   41 1   
    43   14   42 1   
    44   15   43 1   
    45   15   44 1   
    46   16   45 1   
    47   16   46 1   
    48   17   47 1   
    49   17   48 1   
    50   18   49 1   
    51   18   50 1   
    52   19   51 1   
    53   19   52 1   
    54   20   53 1   
    55   21   54 1   
    56   22   55 1   
    57   22   56 1   
    58   22   57 1   
@<TRIPOS>SUBSTRUCTURE
     1 MOL         1 TEMP              0 ****  ****    0 ROOT
