@<TRIPOS>MOLECULE
AVX38708_1
   56    59     1     0     0
SMALL
No Charge or Current Charge


@<TRIPOS>ATOM
      1 C1          6.1590   -2.5570    2.0950 ca        1 MOL     -0.118502
      2 C2         -0.2060    3.4970    1.7800 ca        1 MOL     -0.101702
      3 C3          4.9410   -3.0980    1.6820 ca        1 MOL     -0.133802
      4 C4          6.1840   -1.5610    3.0720 ca        1 MOL     -0.131402
      5 C5         -0.5110    3.4440    0.4200 ca        1 MOL     -0.107702
      6 C6          0.1820    2.3380    2.4530 ca        1 MOL     -0.093902
      7 C7          3.7490   -2.6430    2.2450 ca        1 MOL     -0.113202
      8 C8          4.9920   -1.1070    3.6350 ca        1 MOL     -0.109802
      9 C9         -0.4270    2.2330   -0.2670 ca        1 MOL     -0.104702
     10 C10         3.7790   -0.9960   -3.1740 ca        1 MOL     -0.119102
     11 C11         5.1030   -1.3370   -3.4640 ca        1 MOL     -0.138402
     12 C12         0.2660    1.1270    1.7660 ca        1 MOL     -0.103002
     13 C13         4.4880    0.2560   -1.2090 ca        1 MOL     -0.068502
     14 C14         3.7740   -1.6470    3.2220 ca        1 MOL     -0.119302
     15 C15        -0.0390    1.0740    0.4060 ca        1 MOL     -0.106402
     16 C16         3.4740   -0.2040   -2.0530 ca        1 MOL     -0.159302
     17 C17         6.0850   -0.8710   -2.6150 ca        1 MOL      0.076698
     18 C18         5.7860   -0.0960   -1.5180 ca        1 MOL      0.076298
     19 C19         0.6730   -0.0670    2.4940 c         1 MOL      0.648598
     20 C20         4.1950    1.0870   -0.0310 c         1 MOL      0.918298
     21 C21         7.9290   -0.3830   -1.5940 c3        1 MOL      0.316398
     22 C22         1.5590   -2.1270   -0.8590 c3        1 MOL      0.083898
     23 C23         2.4910   -1.1570    3.8290 c3        1 MOL      0.132398
     24 C24         0.0420   -0.2150   -0.3570 c3        1 MOL      0.153398
     25 C25         2.0430    0.1360   -1.7850 c3        1 MOL      0.177698
     26 N1          1.9360   -0.0430    3.0940 n         1 MOL     -0.536902
     27 N2          1.4580   -0.6370   -0.6560 n4        1 MOL     -0.700402
     28 O1          4.1750    2.3670   -0.1650 o         1 MOL     -0.754802
     29 O2         -0.0760   -1.0570    2.5480 o         1 MOL     -0.631902
     30 O3          3.9680    0.5060    1.0960 o         1 MOL     -0.845302
     31 O4          7.4210   -1.1010   -2.7370 os        1 MOL     -0.337102
     32 O5          6.8970    0.2570   -0.8160 os        1 MOL     -0.305202
     33 H1          7.0870   -2.9120    1.6580 ha        1 MOL      0.133298
     34 H2         -0.2710    4.4400    2.3150 ha        1 MOL      0.147098
     35 H3          4.9220   -3.8740    0.9220 ha        1 MOL      0.134398
     36 H4          7.1320   -1.1410    3.3950 ha        1 MOL      0.134098
     37 H5         -0.8130    4.3460   -0.1040 ha        1 MOL      0.146798
     38 H6          0.4160    2.3930    3.5140 ha        1 MOL      0.152898
     39 H7          2.8050   -3.0700    1.9170 ha        1 MOL      0.137898
     40 H8          5.0210   -0.3310    4.3960 ha        1 MOL      0.135998
     41 H9         -0.6660    2.2030   -1.3270 ha        1 MOL      0.139298
     42 H10         2.9840   -1.3490   -3.8260 ha        1 MOL      0.123198
     43 H11         5.3420   -1.9480   -4.3270 ha        1 MOL      0.153698
     44 H12         8.4690   -1.0870   -0.9500 h2        1 MOL      0.072498
     45 H13         8.6310    0.3830   -1.9440 h2        1 MOL      0.074398
     46 H14         0.9830   -2.3820   -1.7500 hx        1 MOL      0.081998
     47 H15         2.6140   -2.3760   -0.9900 hx        1 MOL      0.120898
     48 H16         1.1480   -2.6140    0.0270 hx        1 MOL      0.086698
     49 H17         1.7420   -1.9570    3.8460 h1        1 MOL      0.068298
     50 H18         2.6440   -0.8330    4.8630 h1        1 MOL      0.060798
     51 H19        -0.4190   -1.0360    0.2030 hx        1 MOL      0.121798
     52 H20        -0.4730   -0.1370   -1.3200 hx        1 MOL      0.087998
     53 H21         1.9230    1.1960   -1.5310 hx        1 MOL      0.110198
     54 H22         1.4120   -0.0670   -2.6600 hx        1 MOL      0.090998
     55 H23         2.5330    0.7670    2.9650 hn        1 MOL      0.345598
     56 H24         2.0100   -0.4230    0.1910 hn        1 MOL      0.495798
@<TRIPOS>BOND
     1    1    3 ar  
     2    1    4 ar  
     3    2    5 ar  
     4    2    6 ar  
     5    3    7 ar  
     6    4    8 ar  
     7    5    9 ar  
     8    6   12 ar  
     9    7   14 ar  
    10    8   14 ar  
    11    9   15 ar  
    12   10   11 ar  
    13   10   16 ar  
    14   11   17 ar  
    15   12   15 ar  
    16   12   19 1   
    17   13   16 ar  
    18   13   18 ar  
    19   13   20 1   
    20   14   23 1   
    21   15   24 1   
    22   16   25 1   
    23   17   18 ar  
    24   17   31 1   
    25   18   32 1   
    26   19   26 1   
    27   19   29 2   
    28   20   28 1   
    29   20   30 1   
    30   21   31 1   
    31   21   32 1   
    32   22   27 1   
    33   23   26 1   
    34   24   27 1   
    35   25   27 1   
    36    1   33 1   
    37    2   34 1   
    38    3   35 1   
    39    4   36 1   
    40    5   37 1   
    41    6   38 1   
    42    7   39 1   
    43    8   40 1   
    44    9   41 1   
    45   10   42 1   
    46   11   43 1   
    47   21   44 1   
    48   21   45 1   
    49   22   46 1   
    50   22   47 1   
    51   22   48 1   
    52   23   49 1   
    53   23   50 1   
    54   24   51 1   
    55   24   52 1   
    56   25   53 1   
    57   25   54 1   
    58   26   55 1   
    59   27   56 1   
@<TRIPOS>SUBSTRUCTURE
     1 MOL         1 TEMP              0 ****  ****    0 ROOT
