@<TRIPOS>MOLECULE
AVX38787_1
   73    76     1     0     0
SMALL
No Charge or Current Charge


@<TRIPOS>ATOM
      1 C1          8.7750   -2.6110   -0.4200 ca        1 MOL     -0.108396
      2 C2          8.7580   -1.4210    0.3070 ca        1 MOL     -0.107496
      3 C3          7.8510   -2.8150   -1.4450 ca        1 MOL     -0.095896
      4 C4          7.8170   -0.4350    0.0100 ca        1 MOL     -0.104296
      5 C5          8.9130    1.6620   -4.1670 ca        1 MOL     -0.133496
      6 C6          9.6020    1.9840   -5.3360 ca        1 MOL     -0.151996
      7 C7          6.9100   -1.8290   -1.7420 ca        1 MOL     -0.110696
      8 C8          7.7890    3.8020   -4.2320 ca        1 MOL     -0.069596
      9 C9          6.8930   -0.6390   -1.0140 ca        1 MOL     -0.097496
     10 C10         8.0120    2.5720   -3.6130 ca        1 MOL     -0.192496
     11 C11         9.3900    3.2200   -5.9490 ca        1 MOL      0.099104
     12 C12         8.4670    4.1190   -5.4090 ca        1 MOL      0.070904
     13 C13         5.9560   -2.0690   -2.8160 c         1 MOL      0.651704
     14 C14         6.8270    4.7580   -3.6480 c         1 MOL      0.914604
     15 C15        12.7780    4.7160  -10.2790 c         1 MOL      0.911004
     16 C16         5.3650    0.5630   -8.3400 c3        1 MOL     -0.077296
     17 C17         6.2930    0.8120   -7.1540 c3        1 MOL     -0.079196
     18 C18         4.0910   -0.1590   -7.9130 c3        1 MOL     -0.076996
     19 C19         6.6060   -0.4800   -6.4030 c3        1 MOL     -0.074496
     20 C20         4.4010   -1.4530   -7.1630 c3        1 MOL     -0.071496
     21 C21         8.6600    5.4060   -7.3320 c3        1 MOL      0.086504
     22 C22         5.3270   -1.2050   -5.9640 c3        1 MOL     -0.092296
     23 C23        10.0870    4.8800   -7.4230 c3        1 MOL      0.099904
     24 C24         4.9700    1.8280   -3.1630 c3        1 MOL      0.078104
     25 C25         5.8910    0.4380   -1.3120 c3        1 MOL      0.152704
     26 C26         7.2970    2.1990   -2.3550 c3        1 MOL      0.187204
     27 C27        12.0910    4.5850   -8.9150 c3        1 MOL     -0.199496
     28 C28         5.6660   -2.5190   -5.2630 c3        1 MOL      0.086704
     29 C29        10.6410    5.0230   -8.8320 c3        1 MOL     -0.053296
     30 N1          6.4820   -2.2900   -4.0930 n         1 MOL     -0.553696
     31 N2          6.2080    1.2080   -2.5680 n4        1 MOL     -0.697596
     32 O1          5.5980    4.6970   -4.0180 o         1 MOL     -0.796496
     33 O2         13.9840    4.3490  -10.3390 o         1 MOL     -0.846796
     34 O3          4.7340   -2.0510   -2.5880 o         1 MOL     -0.603196
     35 O4          7.2560    5.6150   -2.7910 o         1 MOL     -0.819596
     36 O5         12.0330    5.1730  -11.1930 o         1 MOL     -0.851596
     37 O6          8.1910    5.3320   -5.9820 os        1 MOL     -0.292696
     38 O7         10.1110    3.4870   -7.0830 os        1 MOL     -0.301896
     39 H1          9.5080   -3.3780   -0.1900 ha        1 MOL      0.143604
     40 H2          9.4780   -1.2620    1.1050 ha        1 MOL      0.144804
     41 H3          7.8740   -3.7470   -2.0040 ha        1 MOL      0.148804
     42 H4          7.8130    0.4890    0.5830 ha        1 MOL      0.143204
     43 H5          9.0890    0.7010   -3.6920 ha        1 MOL      0.106704
     44 H6         10.3100    1.2740   -5.7550 ha        1 MOL      0.152204
     45 H7          5.1070    1.5180   -8.8130 hc        1 MOL      0.046504
     46 H8          5.8890   -0.0370   -9.0930 hc        1 MOL      0.039104
     47 H9          7.2240    1.2700   -7.5060 hc        1 MOL      0.054004
     48 H10         5.8240    1.5290   -6.4680 hc        1 MOL      0.046104
     49 H11         3.4940    0.5010   -7.2710 hc        1 MOL      0.042204
     50 H12         3.4810   -0.3820   -8.7960 hc        1 MOL      0.040104
     51 H13         7.2050   -1.1350   -7.0490 hc        1 MOL      0.041204
     52 H14         7.2250   -0.2480   -5.5280 hc        1 MOL      0.033904
     53 H15         3.4630   -1.9080   -6.8230 hc        1 MOL      0.038804
     54 H16         4.8680   -2.1660   -7.8540 hc        1 MOL      0.039604
     55 H17         8.6140    6.4560   -7.6380 h1        1 MOL      0.087904
     56 H18         7.9720    4.8360   -7.9700 h1        1 MOL      0.054104
     57 H19         4.8000   -0.5780   -5.2370 hc        1 MOL      0.056704
     58 H20        10.7420    5.4120   -6.7200 h1        1 MOL      0.069104
     59 H21         4.5910    2.5660   -2.4540 hx        1 MOL      0.081304
     60 H22         5.2520    2.2990   -4.1070 hx        1 MOL      0.146804
     61 H23         4.2420    1.0300   -3.3250 hx        1 MOL      0.074004
     62 H24         4.8880    0.0190   -1.4440 hx        1 MOL      0.105904
     63 H25         5.8430    1.1690   -0.4980 hx        1 MOL      0.088804
     64 H26         7.9810    1.7550   -1.6200 hx        1 MOL      0.091004
     65 H27         6.8320    3.0740   -1.8830 hx        1 MOL      0.098604
     66 H28        12.6680    5.2100   -8.2210 hc        1 MOL      0.023304
     67 H29        12.1920    3.5480   -8.5720 hc        1 MOL      0.033104
     68 H30         6.2220   -3.1800   -5.9350 h1        1 MOL      0.060204
     69 H31         4.7550   -3.0320   -4.9400 h1        1 MOL      0.066604
     70 H32        10.0060    4.4520   -9.5080 hc        1 MOL      0.065704
     71 H33        10.5580    6.0740   -9.1050 hc        1 MOL      0.050304
     72 H34         7.4850   -2.2310   -4.2340 hn        1 MOL      0.319904
     73 H35         6.5440    0.5160   -3.2570 hn        1 MOL      0.487304
@<TRIPOS>BOND
     1    1    2 ar  
     2    1    3 ar  
     3    2    4 ar  
     4    3    7 ar  
     5    4    9 ar  
     6    5    6 ar  
     7    5   10 ar  
     8    6   11 ar  
     9    7    9 ar  
    10    7   13 1   
    11    8   10 ar  
    12    8   12 ar  
    13    8   14 1   
    14    9   25 1   
    15   10   26 1   
    16   11   12 ar  
    17   11   38 1   
    18   12   37 1   
    19   13   30 1   
    20   13   34 2   
    21   14   32 1   
    22   14   35 1   
    23   15   27 1   
    24   15   33 1   
    25   15   36 1   
    26   16   17 1   
    27   16   18 1   
    28   17   19 1   
    29   18   20 1   
    30   19   22 1   
    31   20   22 1   
    32   21   23 1   
    33   21   37 1   
    34   22   28 1   
    35   23   29 1   
    36   23   38 1   
    37   24   31 1   
    38   25   31 1   
    39   26   31 1   
    40   27   29 1   
    41   28   30 1   
    42    1   39 1   
    43    2   40 1   
    44    3   41 1   
    45    4   42 1   
    46    5   43 1   
    47    6   44 1   
    48   16   45 1   
    49   16   46 1   
    50   17   47 1   
    51   17   48 1   
    52   18   49 1   
    53   18   50 1   
    54   19   51 1   
    55   19   52 1   
    56   20   53 1   
    57   20   54 1   
    58   21   55 1   
    59   21   56 1   
    60   22   57 1   
    61   23   58 1   
    62   24   59 1   
    63   24   60 1   
    64   24   61 1   
    65   25   62 1   
    66   25   63 1   
    67   26   64 1   
    68   26   65 1   
    69   27   66 1   
    70   27   67 1   
    71   28   68 1   
    72   28   69 1   
    73   29   70 1   
    74   29   71 1   
    75   30   72 1   
    76   31   73 1   
@<TRIPOS>SUBSTRUCTURE
     1 MOL         1 TEMP              0 ****  ****    0 ROOT
