@<TRIPOS>MOLECULE
AVX38747_0
   70    73     1     0     0
SMALL
No Charge or Current Charge


@<TRIPOS>ATOM
      1 C1          2.0070    1.7310   -0.6800 ca        1 MOL     -0.151407
      2 C2          2.2400    0.4800   -1.2720 ca        1 MOL     -0.132907
      3 C3          0.8190    1.9810    0.0080 ca        1 MOL     -0.140607
      4 C4          1.2890   -0.5390   -1.1830 ca        1 MOL     -0.095707
      5 C5         -2.8130   -3.8480    0.6770 ca        1 MOL     -0.154307
      6 C6         -3.9240   -4.6610    0.4520 ca        1 MOL     -0.166907
      7 C7         -2.1980   -4.0320   -1.6540 ca        1 MOL     -0.079307
      8 C8         -0.1130    0.9600    0.1020 ca        1 MOL     -0.107607
      9 C9          0.1170   -0.2910   -0.4870 ca        1 MOL     -0.065607
     10 C10        -1.9480   -3.5390   -0.3740 ca        1 MOL     -0.106907
     11 C11        -4.1670   -5.1660   -0.8250 ca        1 MOL      0.059193
     12 C12        -3.3170   -4.8340   -1.8830 ca        1 MOL      0.072093
     13 C13        -1.2860   -3.6950   -2.7660 c         1 MOL      0.921093
     14 C14        -2.0860   -0.9680    3.3530 c         1 MOL      0.655393
     15 C15        -8.2920   -9.0450   -1.4670 c         1 MOL      0.908093
     16 C16        -1.4590    1.0070    0.7600 c3        1 MOL     -0.055307
     17 C17        -4.8470   -5.7750   -3.3530 c3        1 MOL      0.090193
     18 C18        -1.0740   -1.1910   -0.2820 c3        1 MOL     -0.038607
     19 C19        -1.7710   -0.4970    0.9210 c3        1 MOL      0.106193
     20 C20        -5.2230   -6.7090   -2.2110 c3        1 MOL      0.098993
     21 C21        -0.7530   -2.6670   -0.0950 c3        1 MOL     -0.013307
     22 C22        -1.3230   -1.5000    4.5550 c3        1 MOL     -0.162007
     23 C23        -6.9440   -8.3250   -1.3410 c3        1 MOL     -0.185207
     24 C24        -6.5970   -7.3250   -2.4270 c3        1 MOL     -0.055507
     25 C25        -2.2090   -2.1900    5.5910 c3        1 MOL     -0.070907
     26 C26        -2.9620   -3.3910    5.0080 c3        1 MOL     -0.093707
     27 C27        -3.8590   -4.0450    6.0630 c3        1 MOL     -0.116107
     28 C28        -4.6420   -5.2410    5.5360 c3        1 MOL      0.111793
     29 N1         -1.3020   -0.9740    2.2080 n         1 MOL     -0.544607
     30 N2         -3.7230   -6.2990    5.0540 n4        1 MOL     -0.870607
     31 O1         -1.5260   -2.6400   -3.4600 o         1 MOL     -0.824407
     32 O2         -8.5740   -9.8740   -0.5580 o         1 MOL     -0.838707
     33 O3         -0.2860   -4.4700   -2.9970 o         1 MOL     -0.823107
     34 O4         -3.2450   -0.5680    3.4150 o         1 MOL     -0.627807
     35 O5         -8.9710   -8.7010   -2.4770 o         1 MOL     -0.826407
     36 O6         -3.5210   -5.2710   -3.1650 os        1 MOL     -0.291507
     37 O7         -5.2620   -5.9750   -0.9790 os        1 MOL     -0.322207
     38 H1          2.7570    2.5130   -0.7650 ha        1 MOL      0.113593
     39 H2          3.1680    0.3060   -1.8100 ha        1 MOL      0.126893
     40 H3          0.6340    2.9520    0.4540 ha        1 MOL      0.112893
     41 H4          1.4720   -1.4970   -1.6580 ha        1 MOL      0.172693
     42 H5         -2.6260   -3.4640    1.6760 ha        1 MOL      0.092893
     43 H6         -4.5860   -4.9060    1.2780 ha        1 MOL      0.118893
     44 H7         -1.4340    1.5380    1.7160 hc        1 MOL      0.039693
     45 H8         -2.1760    1.4850    0.0830 hc        1 MOL      0.069493
     46 H9         -4.8620   -6.3080   -4.3100 h1        1 MOL      0.074393
     47 H10        -5.5350   -4.9220   -3.4280 h1        1 MOL      0.049793
     48 H11        -1.7180   -1.0790   -1.1690 hc        1 MOL      0.135093
     49 H12        -2.8510   -0.6820    0.9110 h1        1 MOL      0.097093
     50 H13        -4.4790   -7.5110   -2.1040 h1        1 MOL      0.056393
     51 H14        -0.3990   -2.8400    0.9280 hc        1 MOL      0.005393
     52 H15         0.0750   -2.9510   -0.7550 hc        1 MOL      0.098393
     53 H16        -0.5370   -2.1830    4.2120 hc        1 MOL      0.064893
     54 H17        -0.8310   -0.6400    5.0260 hc        1 MOL      0.065993
     55 H18        -6.1770   -9.1090   -1.3530 hc        1 MOL      0.024593
     56 H19        -6.8960   -7.8440   -0.3560 hc        1 MOL      0.036493
     57 H20        -7.3260   -6.5180   -2.4840 hc        1 MOL      0.058893
     58 H21        -6.5760   -7.8250   -3.3950 hc        1 MOL      0.056593
     59 H22        -1.5730   -2.5380    6.4140 hc        1 MOL      0.057393
     60 H23        -2.9220   -1.4750    6.0190 hc        1 MOL      0.064693
     61 H24        -2.2400   -4.1280    4.6340 hc        1 MOL      0.036693
     62 H25        -3.5650   -3.0680    4.1530 hc        1 MOL      0.064493
     63 H26        -3.2360   -4.3880    6.8980 hc        1 MOL      0.069393
     64 H27        -4.5510   -3.2990    6.4710 hc        1 MOL      0.095093
     65 H28        -5.2750   -5.6920    6.3060 hx        1 MOL      0.095593
     66 H29        -5.2610   -4.9540    4.6810 hx        1 MOL      0.105693
     67 H30        -0.3530   -1.3290    2.2740 hn        1 MOL      0.312493
     68 H31        -2.7630   -6.1280    5.3760 hn        1 MOL      0.455193
     69 H32        -3.7090   -6.3350    4.0280 hn        1 MOL      0.455193
     70 H33        -4.0100   -7.2220    5.3980 hn        1 MOL      0.455293
@<TRIPOS>BOND
     1    1    2 ar  
     2    1    3 ar  
     3    2    4 ar  
     4    3    8 ar  
     5    4    9 ar  
     6    5    6 ar  
     7    5   10 ar  
     8    6   11 ar  
     9    7   10 ar  
    10    7   12 ar  
    11    7   13 1   
    12    8    9 ar  
    13    8   16 1   
    14    9   18 1   
    15   10   21 1   
    16   11   12 ar  
    17   11   37 1   
    18   12   36 1   
    19   13   31 1   
    20   13   33 1   
    21   14   22 1   
    22   14   29 1   
    23   14   34 2   
    24   15   23 1   
    25   15   32 1   
    26   15   35 1   
    27   16   19 1   
    28   17   20 1   
    29   17   36 1   
    30   18   19 1   
    31   18   21 1   
    32   19   29 1   
    33   20   24 1   
    34   20   37 1   
    35   22   25 1   
    36   23   24 1   
    37   25   26 1   
    38   26   27 1   
    39   27   28 1   
    40   28   30 1   
    41    1   38 1   
    42    2   39 1   
    43    3   40 1   
    44    4   41 1   
    45    5   42 1   
    46    6   43 1   
    47   16   44 1   
    48   16   45 1   
    49   17   46 1   
    50   17   47 1   
    51   18   48 1   
    52   19   49 1   
    53   20   50 1   
    54   21   51 1   
    55   21   52 1   
    56   22   53 1   
    57   22   54 1   
    58   23   55 1   
    59   23   56 1   
    60   24   57 1   
    61   24   58 1   
    62   25   59 1   
    63   25   60 1   
    64   26   61 1   
    65   26   62 1   
    66   27   63 1   
    67   27   64 1   
    68   28   65 1   
    69   28   66 1   
    70   29   67 1   
    71   30   68 1   
    72   30   69 1   
    73   30   70 1   
@<TRIPOS>SUBSTRUCTURE
     1 MOL         1 TEMP              0 ****  ****    0 ROOT
