@<TRIPOS>MOLECULE
AVX40811_0
   51    53     1     0     0
SMALL
No Charge or Current Charge


@<TRIPOS>ATOM
      1 C1          1.0110    5.1750   -4.1370 ca        1 MOL     -0.260902
      2 C2          1.1170    3.9000   -3.5910 ca        1 MOL     -0.055302
      3 C3         -2.5070    0.9000   -3.0950 ca        1 MOL     -0.153302
      4 C4         -2.7290    1.8220   -4.1200 ca        1 MOL     -0.144602
      5 C5          0.4820    6.1790   -3.3420 ca        1 MOL      0.397398
      6 C6          0.1830    4.7440   -1.5730 ca        1 MOL      0.432098
      7 C7          0.6980    3.6730   -2.2850 ca        1 MOL     -0.243402
      8 C8         -3.2080    2.5260   -1.4240 ca        1 MOL     -0.080802
      9 C9         -2.7450    1.2500   -1.7540 ca        1 MOL     -0.074302
     10 C10        -3.1870    3.0750   -3.7680 ca        1 MOL      0.031298
     11 C11        -3.4200    3.4180   -2.4550 ca        1 MOL      0.059698
     12 C12         0.7990    2.3220   -1.6740 c         1 MOL      0.667498
     13 C13        -3.4660    2.9170   -0.0280 c         1 MOL      0.923898
     14 C14        -3.8890    5.1210   -3.7050 c3        1 MOL      0.317898
     15 C15        -1.1430   -3.0780   -2.0430 c3        1 MOL     -0.088102
     16 C16        -1.5340   -4.1010    0.2070 c3        1 MOL     -0.088702
     17 C17        -2.4890    0.2190   -0.6810 c3        1 MOL     -0.036002
     18 C18        -0.9360   -1.6640    0.0720 c3        1 MOL     -0.069002
     19 C19        -0.1280    0.7810    0.0350 c3        1 MOL      0.083898
     20 C20        -1.6700   -2.8250   -0.6300 c3        1 MOL     -0.069502
     21 C21        -1.0240   -0.2830   -0.6240 c3        1 MOL     -0.080602
     22 N1          0.0640    5.9960   -2.0700 nb        1 MOL     -0.680002
     23 N2         -0.1150    2.0350   -0.6670 n         1 MOL     -0.540602
     24 O1         -4.6400    2.7200    0.4640 o         1 MOL     -0.799102
     25 O2          1.6750    1.5530   -2.0620 o         1 MOL     -0.627902
     26 O3         -2.5100    3.4430    0.6550 o         1 MOL     -0.830102
     27 O4         -3.4590    4.0960   -4.6250 os        1 MOL     -0.354902
     28 O5         -3.8670    4.6970   -2.3260 os        1 MOL     -0.313202
     29 H1          1.3320    5.3750   -5.1530 ha        1 MOL      0.139298
     30 H2          1.5280    3.0930   -4.1910 ha        1 MOL      0.158598
     31 H3         -2.1470   -0.0950   -3.3440 ha        1 MOL      0.119698
     32 H4         -2.5470    1.5560   -5.1550 ha        1 MOL      0.132498
     33 H5          0.3770    7.1900   -3.7220 h4        1 MOL      0.011398
     34 H6         -0.1600    4.6280   -0.5490 h4        1 MOL      0.041698
     35 H7         -3.2300    5.9900   -3.8150 h2        1 MOL      0.051698
     36 H8         -4.9110    5.4190   -3.9640 h2        1 MOL      0.051298
     37 H9         -0.0730   -3.3140   -2.0310 hc        1 MOL      0.029998
     38 H10        -1.6690   -3.9190   -2.5090 hc        1 MOL      0.020498
     39 H11        -1.2930   -2.2070   -2.6870 hc        1 MOL      0.040398
     40 H12        -0.4820   -4.3880    0.3110 hc        1 MOL      0.026098
     41 H13        -2.0610   -4.9360   -0.2670 hc        1 MOL      0.022898
     42 H14        -1.9490   -3.9640    1.2120 hc        1 MOL      0.033298
     43 H15        -3.1650   -0.6260   -0.8710 hc        1 MOL      0.037298
     44 H16        -2.7880    0.6210    0.2960 hc        1 MOL      0.093098
     45 H17        -1.3210   -1.5730    1.0960 hc        1 MOL      0.047198
     46 H18         0.1200   -1.9440    0.1720 hc        1 MOL      0.032498
     47 H19        -0.4690    0.9880    1.0560 h1        1 MOL      0.094798
     48 H20         0.9080    0.4380    0.1100 h1        1 MOL      0.056398
     49 H21        -2.7400   -2.5940   -0.6950 hc        1 MOL      0.055198
     50 H22        -0.6700   -0.3980   -1.6570 hc        1 MOL      0.048698
     51 H23        -0.7700    2.7520   -0.3600 hn        1 MOL      0.332098
@<TRIPOS>BOND
     1    1    2 ar  
     2    1    5 ar  
     3    2    7 ar  
     4    3    4 ar  
     5    3    9 ar  
     6    4   10 ar  
     7    5   22 ar  
     8    6    7 ar  
     9    6   22 ar  
    10    7   12 1   
    11    8    9 ar  
    12    8   11 ar  
    13    8   13 1   
    14    9   17 1   
    15   10   11 ar  
    16   10   27 1   
    17   11   28 1   
    18   12   23 1   
    19   12   25 2   
    20   13   24 1   
    21   13   26 1   
    22   14   27 1   
    23   14   28 1   
    24   15   20 1   
    25   16   20 1   
    26   17   21 1   
    27   18   20 1   
    28   18   21 1   
    29   19   21 1   
    30   19   23 1   
    31    1   29 1   
    32    2   30 1   
    33    3   31 1   
    34    4   32 1   
    35    5   33 1   
    36    6   34 1   
    37   14   35 1   
    38   14   36 1   
    39   15   37 1   
    40   15   38 1   
    41   15   39 1   
    42   16   40 1   
    43   16   41 1   
    44   16   42 1   
    45   17   43 1   
    46   17   44 1   
    47   18   45 1   
    48   18   46 1   
    49   19   47 1   
    50   19   48 1   
    51   20   49 1   
    52   21   50 1   
    53   23   51 1   
@<TRIPOS>SUBSTRUCTURE
     1 MOL         1 TEMP              0 ****  ****    0 ROOT
