@<TRIPOS>MOLECULE
AVX38742_3
   47    50     1     0     0
SMALL
No Charge or Current Charge


@<TRIPOS>ATOM
      1 C1          3.1920    2.5160    2.7160 ca        1 MOL     -0.125400
      2 C2          3.3080    2.4870    4.1150 ca        1 MOL     -0.151900
      3 C3          2.8080    1.3750    2.0070 ca        1 MOL     -0.074200
      4 C4          0.9300    0.0620   -0.5570 ca        1 MOL     -0.142400
      5 C5          3.0420    1.3160    4.8280 ca        1 MOL     -0.134400
      6 C6          1.0150    0.8800   -1.6840 ca        1 MOL     -0.161600
      7 C7          2.5450    0.2150    2.7180 ca        1 MOL     -0.009800
      8 C8          2.0370   -0.6830   -0.1480 ca        1 MOL     -0.112500
      9 C9          3.2360   -0.6020   -0.8580 ca        1 MOL     -0.068100
     10 C10         2.6610    0.1840    4.1220 ca        1 MOL     -0.108500
     11 C11         2.2090    0.9510   -2.4020 ca        1 MOL      0.055000
     12 C12         3.3250    0.2270   -1.9770 ca        1 MOL      0.064000
     13 C13         2.1320   -1.1110    2.2640 ce        1 MOL     -0.186300
     14 C14         1.9950   -1.9810    3.4710 ce        1 MOL      0.451700
     15 C15         1.9040   -1.5310    1.0300 cf        1 MOL      0.041200
     16 C16         4.4160   -1.3810   -0.4250 c         1 MOL      0.924200
     17 C17         2.2210    3.7370   -7.3730 c         1 MOL      0.908700
     18 C18         2.3340   -1.1660    4.7060 c3        1 MOL     -0.065600
     19 C19         4.6160    1.3960   -3.5120 c3        1 MOL      0.090800
     20 C20         3.3510    1.4890   -4.3560 c3        1 MOL      0.103300
     21 C21         2.2300    2.6640   -6.2780 c3        1 MOL     -0.192500
     22 C22         3.4460    2.6180   -5.3720 c3        1 MOL     -0.057200
     23 N1          1.6510   -3.2200    3.5110 n2        1 MOL     -0.501700
     24 O1          5.2340   -0.8430    0.4060 o         1 MOL     -0.820500
     25 O2          1.2050    3.7690   -8.1210 o         1 MOL     -0.860400
     26 O3          4.5770   -2.5640   -0.8980 o         1 MOL     -0.821800
     27 O4          3.2470    4.4770   -7.3820 o         1 MOL     -0.854800
     28 O5          4.5340    0.2810   -2.6200 os        1 MOL     -0.290500
     29 O6          2.2240    1.7560   -3.5100 os        1 MOL     -0.323700
     30 O7          1.4130   -3.6570    2.2060 oh        1 MOL     -0.355400
     31 H1          3.4030    3.4370    2.1810 ha        1 MOL      0.130700
     32 H2          3.6070    3.3860    4.6470 ha        1 MOL      0.106500
     33 H3          2.7220    1.4130    0.9260 ha        1 MOL      0.174100
     34 H4         -0.0090    0.0120   -0.0110 ha        1 MOL      0.111200
     35 H5          3.1340    1.2970    5.9090 ha        1 MOL      0.108800
     36 H6          0.1460    1.4500   -2.0010 ha        1 MOL      0.131400
     37 H7          1.5750   -2.5430    0.8650 ha        1 MOL      0.151800
     38 H8          3.1980   -1.6010    5.2150 hc        1 MOL      0.060500
     39 H9          1.4660   -1.1150    5.3690 hc        1 MOL      0.057400
     40 H10         5.4950    1.2440   -4.1470 h1        1 MOL      0.068700
     41 H11         4.7790    2.3040   -2.9170 h1        1 MOL      0.046300
     42 H12         3.1650    0.5440   -4.8820 h1        1 MOL      0.063300
     43 H13         2.1630    1.6990   -6.7960 hc        1 MOL      0.019900
     44 H14         1.3170    2.7700   -5.6780 hc        1 MOL      0.030000
     45 H15         3.5840    3.5530   -4.8320 hc        1 MOL      0.067900
     46 H16         4.3410    2.4400   -5.9670 hc        1 MOL      0.033500
     47 H17         1.1650   -4.5860    2.3510 ho        1 MOL      0.418300
@<TRIPOS>BOND
     1    1    2 ar  
     2    1    3 ar  
     3    2    5 ar  
     4    3    7 ar  
     5    4    6 ar  
     6    4    8 ar  
     7    5   10 ar  
     8    6   11 ar  
     9    7   10 ar  
    10    7   13 1   
    11    8    9 ar  
    12    8   15 1   
    13    9   12 ar  
    14    9   16 1   
    15   10   18 1   
    16   11   12 ar  
    17   11   29 1   
    18   12   28 1   
    19   13   14 1   
    20   13   15 2   
    21   14   18 1   
    22   14   23 2   
    23   16   24 1   
    24   16   26 1   
    25   17   21 1   
    26   17   25 1   
    27   17   27 1   
    28   19   20 1   
    29   19   28 1   
    30   20   22 1   
    31   20   29 1   
    32   21   22 1   
    33   23   30 1   
    34    1   31 1   
    35    2   32 1   
    36    3   33 1   
    37    4   34 1   
    38    5   35 1   
    39    6   36 1   
    40   15   37 1   
    41   18   38 1   
    42   18   39 1   
    43   19   40 1   
    44   19   41 1   
    45   20   42 1   
    46   21   43 1   
    47   21   44 1   
    48   22   45 1   
    49   22   46 1   
    50   30   47 1   
@<TRIPOS>SUBSTRUCTURE
     1 MOL         1 TEMP              0 ****  ****    0 ROOT
