@<TRIPOS>MOLECULE
AVX-17286_0
   33    36     1     0     0
SMALL
No Charge or Current Charge


@<TRIPOS>ATOM
      1 C1         -0.1950   -1.2190   -1.7730 ca        1 MOL     -0.161706
      2 C2          0.0490   -1.0080   -0.4030 ca        1 MOL     -0.115006
      3 C3         -0.1400   -2.5030   -2.3250 ca        1 MOL     -0.061706
      4 C4         -1.5130   -4.9840   -4.4270 ca        1 MOL     -0.138206
      5 C5          0.3520   -2.0780    0.4420 ca        1 MOL     -0.177606
      6 C6         -1.8850   -4.4380   -5.6580 ca        1 MOL     -0.148306
      7 C7          0.1600   -3.5570   -1.4830 ca        1 MOL     -0.066506
      8 C8         -0.1560   -5.1280   -4.0890 ca        1 MOL     -0.086806
      9 C9          0.8440   -4.7270   -4.9780 ca        1 MOL     -0.063806
     10 C10         0.4010   -3.3370   -0.1230 ca        1 MOL      0.039694
     11 C11        -0.8780   -4.0510   -6.5180 ca        1 MOL      0.036794
     12 C12         0.4500   -4.1910   -6.1860 ca        1 MOL      0.063894
     13 C13         0.3030   -4.9950   -1.6830 cc        1 MOL     -0.152306
     14 C14         0.6440   -5.6210   -0.3620 c         1 MOL      0.705394
     15 C15         0.1690   -5.6940   -2.8120 cf        1 MOL      0.068394
     16 C16         2.2760   -4.8590   -4.6550 c         1 MOL      0.919894
     17 C17         0.3220   -3.3130   -8.1600 c3        1 MOL      0.314994
     18 N1          0.6830   -4.5430    0.5280 n         1 MOL     -0.472706
     19 O1          2.8690   -3.8820   -4.0630 o         1 MOL     -0.795206
     20 O2          0.8370   -6.8020   -0.1430 o         1 MOL     -0.616206
     21 O3          2.8840   -5.9470   -4.9760 o         1 MOL     -0.808506
     22 O4         -1.0480   -3.5020   -7.7510 os        1 MOL     -0.356806
     23 O5          1.2780   -3.7480   -7.1710 os        1 MOL     -0.299606
     24 H1         -0.4280   -0.3690   -2.4100 ha        1 MOL      0.126494
     25 H2          0.0010    0.0000   -0.0010 ha        1 MOL      0.112194
     26 H3         -0.3290   -2.6550   -3.3820 ha        1 MOL      0.158894
     27 H4         -2.2920   -5.2950   -3.7340 ha        1 MOL      0.125994
     28 H5          0.5400   -1.9160    1.4970 ha        1 MOL      0.123594
     29 H6         -2.9310   -4.3270   -5.9220 ha        1 MOL      0.134194
     30 H7          0.2880   -6.7760   -2.7530 ha        1 MOL      0.168394
     31 H8          0.4930   -3.8760   -9.0850 h2        1 MOL      0.053194
     32 H9          0.4840   -2.2480   -8.3600 h2        1 MOL      0.052694
     33 H10         0.8880   -4.6240    1.5170 hn        1 MOL      0.316294
@<TRIPOS>BOND
     1    1    2 ar  
     2    1    3 ar  
     3    2    5 ar  
     4    3    7 ar  
     5    4    6 ar  
     6    4    8 ar  
     7    5   10 ar  
     8    6   11 ar  
     9    7   10 ar  
    10    7   13 1   
    11    8    9 ar  
    12    8   15 1   
    13    9   12 ar  
    14    9   16 1   
    15   10   18 1   
    16   11   12 ar  
    17   11   22 1   
    18   12   23 1   
    19   13   14 1   
    20   13   15 2   
    21   14   18 1   
    22   14   20 2   
    23   16   19 1   
    24   16   21 1   
    25   17   22 1   
    26   17   23 1   
    27    1   24 1   
    28    2   25 1   
    29    3   26 1   
    30    4   27 1   
    31    5   28 1   
    32    6   29 1   
    33   15   30 1   
    34   17   31 1   
    35   17   32 1   
    36   18   33 1   
@<TRIPOS>SUBSTRUCTURE
     1 MOL         1 TEMP              0 ****  ****    0 ROOT
