@<TRIPOS>MOLECULE
AVX40911_0
   31    33     1     0     0
SMALL
No Charge or Current Charge


@<TRIPOS>ATOM
      1 C1          1.3520    4.4760    1.5730 ca        1 MOL     -0.148203
      2 C2          0.6630    3.6750    2.4830 ca        1 MOL     -0.140803
      3 C3          1.4190    4.1050    0.2300 ca        1 MOL     -0.136603
      4 C4          0.0410    2.5030    2.0510 ca        1 MOL     -0.121303
      5 C5          0.7970    2.9340   -0.2030 ca        1 MOL     -0.111003
      6 C6          2.3980   -0.1710    0.4920 ca        1 MOL     -0.146203
      7 C7          3.7790   -0.2350    0.2920 ca        1 MOL     -0.143403
      8 C8          0.1080    2.1330    0.7080 ca        1 MOL     -0.027803
      9 C9          1.5140   -0.2210   -0.5990 ca        1 MOL     -0.054103
     10 C10         2.0000   -0.3350   -1.9040 ca        1 MOL     -0.073503
     11 C11         4.2330   -0.3480   -1.0060 ca        1 MOL      0.027497
     12 C12         3.3670   -0.3970   -2.0750 ca        1 MOL      0.070197
     13 C13        -0.5480    0.8950    0.2510 ce        1 MOL     -0.156703
     14 C14         0.0820   -0.1500   -0.3310 cf        1 MOL     -0.032903
     15 C15         1.1020   -0.3930   -3.0710 c         1 MOL      0.919697
     16 C16         5.3930   -0.5250   -2.8250 c3        1 MOL      0.314297
     17 O1          0.6880   -1.5420   -3.4760 o         1 MOL     -0.802903
     18 O2          0.7620    0.7080   -3.6450 o         1 MOL     -0.821903
     19 O3          5.5360   -0.4240   -1.3930 os        1 MOL     -0.359603
     20 O4          4.0190   -0.5090   -3.2640 os        1 MOL     -0.298103
     21 H1          1.8350    5.3880    1.9090 ha        1 MOL      0.111397
     22 H2          0.6100    3.9630    3.5290 ha        1 MOL      0.115397
     23 H3          1.9550    4.7290   -0.4800 ha        1 MOL      0.120897
     24 H4         -0.4920    1.8890    2.7730 ha        1 MOL      0.130997
     25 H5          0.8590    2.6590   -1.2530 ha        1 MOL      0.154197
     26 H6          2.0190   -0.0830    1.5080 ha        1 MOL      0.119197
     27 H7          4.4640   -0.1970    1.1310 ha        1 MOL      0.128797
     28 H8         -1.6170    0.8450    0.4410 ha        1 MOL      0.117597
     29 H9         -0.5070   -1.0090   -0.6630 ha        1 MOL      0.146997
     30 H10         5.9210    0.3150   -3.2900 h2        1 MOL      0.049197
     31 H11         5.8560   -1.4610   -3.1580 h2        1 MOL      0.048697
@<TRIPOS>BOND
     1    1    2 ar  
     2    1    3 ar  
     3    2    4 ar  
     4    3    5 ar  
     5    4    8 ar  
     6    5    8 ar  
     7    6    7 ar  
     8    6    9 ar  
     9    7   11 ar  
    10    8   13 1   
    11    9   10 ar  
    12    9   14 1   
    13   10   12 ar  
    14   10   15 1   
    15   11   12 ar  
    16   11   19 1   
    17   12   20 1   
    18   13   14 2   
    19   15   17 1   
    20   15   18 1   
    21   16   19 1   
    22   16   20 1   
    23    1   21 1   
    24    2   22 1   
    25    3   23 1   
    26    4   24 1   
    27    5   25 1   
    28    6   26 1   
    29    7   27 1   
    30   13   28 1   
    31   14   29 1   
    32   16   30 1   
    33   16   31 1   
@<TRIPOS>SUBSTRUCTURE
     1 MOL         1 TEMP              0 ****  ****    0 ROOT
