@<TRIPOS>MOLECULE
AVX17684m_0
   53    56     1     0     0
SMALL
No Charge or Current Charge


@<TRIPOS>ATOM
      1 C1          2.8870   -7.0050   -7.1910 ca        1 MOL     -0.120498
      2 C2         -0.0050    0.8630   -5.0900 ca        1 MOL     -0.107298
      3 C3          3.1090   -6.7920   -5.8310 ca        1 MOL     -0.133098
      4 C4          3.0530   -5.9570   -8.0970 ca        1 MOL     -0.132698
      5 C5         -0.6240    0.8520   -3.8400 ca        1 MOL     -0.110398
      6 C6          1.1770    0.1510   -5.2900 ca        1 MOL     -0.097098
      7 C7          3.4980   -5.5320   -5.3760 ca        1 MOL     -0.116998
      8 C8          3.4420   -4.6970   -7.6430 ca        1 MOL     -0.116698
      9 C9         -0.0600    0.1280   -2.7890 ca        1 MOL     -0.106598
     10 C10         3.0560   -5.8520   -1.4480 ca        1 MOL     -0.114498
     11 C11         2.9430   -7.2330   -1.6200 ca        1 MOL     -0.131598
     12 C12         1.7410   -0.5730   -4.2390 ca        1 MOL     -0.109998
     13 C13         0.7190   -5.7000   -0.7830 ca        1 MOL     -0.085098
     14 C14         3.6640   -4.4840   -6.2820 ca        1 MOL     -0.129298
     15 C15         1.1230   -0.5840   -2.9890 ca        1 MOL     -0.104398
     16 C16         1.9500   -5.0890   -1.0320 ca        1 MOL     -0.148898
     17 C17         1.7160   -7.8120   -1.3670 ca        1 MOL      0.074402
     18 C18         0.6340   -7.0660   -0.9600 ca        1 MOL      0.083102
     19 C19         2.9770   -1.3070   -4.4750 c         1 MOL      0.652302
     20 C20        -0.4530   -4.9250   -0.3460 c         1 MOL      0.915902
     21 C21         0.0280   -9.1380   -1.0970 c3        1 MOL      0.316502
     22 C22         4.0820   -3.1280   -5.7940 c3        1 MOL      0.133602
     23 C23         1.7080   -1.3530   -1.8420 c3        1 MOL      0.161802
     24 C24         2.1210   -3.6140   -0.8630 c3        1 MOL      0.179202
     25 N1          2.9460   -2.2990   -5.4610 n         1 MOL     -0.561998
     26 N2          1.5020   -2.8210   -1.9590 n4        1 MOL     -0.830198
     27 O1         -0.6500   -4.7570    0.9160 o         1 MOL     -0.706398
     28 O2          3.9930   -1.0600   -3.8040 o         1 MOL     -0.598298
     29 O3         -1.2440   -4.4390   -1.2390 o         1 MOL     -0.813598
     30 O4          1.4190   -9.1350   -1.4790 os        1 MOL     -0.336598
     31 O5         -0.4760   -7.8280   -0.7660 os        1 MOL     -0.303998
     32 H1          2.5850   -7.9860   -7.5450 ha        1 MOL      0.135502
     33 H2         -0.4440    1.4270   -5.9090 ha        1 MOL      0.146502
     34 H3          2.9810   -7.6080   -5.1250 ha        1 MOL      0.139602
     35 H4          2.8810   -6.1230   -9.1570 ha        1 MOL      0.135402
     36 H5         -1.5440    1.4070   -3.6850 ha        1 MOL      0.146602
     37 H6          1.6500    0.1690   -6.2690 ha        1 MOL      0.150602
     38 H7          3.6690   -5.3750   -4.3140 ha        1 MOL      0.146202
     39 H8          3.5690   -3.8870   -8.3560 ha        1 MOL      0.135602
     40 H9         -0.5500    0.1260   -1.8190 ha        1 MOL      0.143402
     41 H10         4.0110   -5.3690   -1.6400 ha        1 MOL      0.128802
     42 H11         3.7930   -7.8250   -1.9400 ha        1 MOL      0.155302
     43 H12        -0.5630   -9.5420   -1.9270 h2        1 MOL      0.073802
     44 H13        -0.0950   -9.7920   -0.2260 h2        1 MOL      0.075702
     45 H14         4.7090   -3.2160   -4.9000 h1        1 MOL      0.077302
     46 H15         4.6700   -2.6010   -6.5530 h1        1 MOL      0.059502
     47 H16         2.7890   -1.1920   -1.7670 hx        1 MOL      0.099102
     48 H17         1.2590   -1.0480   -0.8900 hx        1 MOL      0.095102
     49 H18         1.6650   -3.2620    0.0710 hx        1 MOL      0.105202
     50 H19         3.1820   -3.3330   -0.8370 hx        1 MOL      0.074302
     51 H20         2.0720   -2.5020   -5.9340 hn        1 MOL      0.329502
     52 H21         0.4930   -3.0190   -1.9880 hn        1 MOL      0.502902
     53 H22         1.8780   -3.1440   -2.8610 hn        1 MOL      0.443502
@<TRIPOS>BOND
     1    1    3 ar  
     2    1    4 ar  
     3    2    5 ar  
     4    2    6 ar  
     5    3    7 ar  
     6    4    8 ar  
     7    5    9 ar  
     8    6   12 ar  
     9    7   14 ar  
    10    8   14 ar  
    11    9   15 ar  
    12   10   11 ar  
    13   10   16 ar  
    14   11   17 ar  
    15   12   15 ar  
    16   12   19 1   
    17   13   16 ar  
    18   13   18 ar  
    19   13   20 1   
    20   14   22 1   
    21   15   23 1   
    22   16   24 1   
    23   17   18 ar  
    24   17   30 1   
    25   18   31 1   
    26   19   25 1   
    27   19   28 2   
    28   20   27 1   
    29   20   29 1   
    30   21   30 1   
    31   21   31 1   
    32   22   25 1   
    33   23   26 1   
    34   24   26 1   
    35    1   32 1   
    36    2   33 1   
    37    3   34 1   
    38    4   35 1   
    39    5   36 1   
    40    6   37 1   
    41    7   38 1   
    42    8   39 1   
    43    9   40 1   
    44   10   41 1   
    45   11   42 1   
    46   21   43 1   
    47   21   44 1   
    48   22   45 1   
    49   22   46 1   
    50   23   47 1   
    51   23   48 1   
    52   24   49 1   
    53   24   50 1   
    54   25   51 1   
    55   26   52 1   
    56   26   53 1   
@<TRIPOS>SUBSTRUCTURE
     1 MOL         1 TEMP              0 ****  ****    0 ROOT
