@<TRIPOS>MOLECULE
AVX38781_1
   77    80     1     0     0
SMALL
No Charge or Current Charge


@<TRIPOS>ATOM
      1 C1          4.6090   -6.1170   -5.3480 ca        1 MOL     -0.106310
      2 C2          3.7780   -6.5380   -4.3100 ca        1 MOL     -0.101310
      3 C3          4.0610   -5.5170   -6.4810 ca        1 MOL     -0.096810
      4 C4          2.3980   -6.3580   -4.4050 ca        1 MOL     -0.095210
      5 C5         -1.7360   -9.1420   -8.0820 ca        1 MOL     -0.133010
      6 C6         -1.9680  -10.5010   -8.2940 ca        1 MOL     -0.149610
      7 C7          2.6810   -5.3370   -6.5770 ca        1 MOL     -0.106810
      8 C8          0.4810   -9.6430   -7.2580 ca        1 MOL     -0.075810
      9 C9          1.8500   -5.7570   -5.5380 ca        1 MOL     -0.100210
     10 C10        -0.5150   -8.7140   -7.5590 ca        1 MOL     -0.190710
     11 C11        -0.9770  -11.4320   -7.9800 ca        1 MOL      0.098690
     12 C12         0.2550  -11.0010   -7.4830 ca        1 MOL      0.071790
     13 C13        -2.4050   -6.0140   -3.1110 c2        1 MOL     -0.168310
     14 C14        -1.8960   -6.9500   -3.9200 c2        1 MOL     -0.214010
     15 C15         2.1350   -4.7080   -7.7710 c         1 MOL      0.652790
     16 C16         1.7760   -9.1860   -6.7130 c         1 MOL      0.918690
     17 C17        -2.2960  -16.9710   -8.1960 c         1 MOL      0.911390
     18 C18        -1.4270   -6.4680  -12.5380 c3        1 MOL     -0.077410
     19 C19        -1.5160   -5.0240  -12.0540 c3        1 MOL     -0.074810
     20 C20        -0.7480   -7.3640  -11.5070 c3        1 MOL     -0.077010
     21 C21        -0.1470   -4.4780  -11.6530 c3        1 MOL     -0.072810
     22 C22         0.6220   -6.8220  -11.1040 c3        1 MOL     -0.076010
     23 C23         1.0750  -13.1540   -7.7700 c3        1 MOL      0.086190
     24 C24         0.5350   -5.3720  -10.6090 c3        1 MOL     -0.090310
     25 C25        -0.3510  -13.6250   -7.5220 c3        1 MOL      0.099890
     26 C26         0.3620   -5.5770   -5.6150 c3        1 MOL      0.152490
     27 C27        -0.3020   -7.2520   -7.3350 c3        1 MOL      0.186990
     28 C28        -1.7960   -6.8050   -5.4030 c3        1 MOL      0.142290
     29 C29        -1.9620  -15.5460   -7.7390 c3        1 MOL     -0.198010
     30 C30         1.9230   -4.8360  -10.2640 c3        1 MOL      0.088290
     31 C31        -0.5710  -15.0320   -8.0590 c3        1 MOL     -0.054110
     32 N1          2.3780   -5.3470   -8.9910 n         1 MOL     -0.551210
     33 N2         -0.3750   -6.8600   -5.9020 n4        1 MOL     -0.702310
     34 O1          2.7220   -8.8990   -7.5360 o         1 MOL     -0.765110
     35 O2         -3.4550  -17.3910   -7.9270 o         1 MOL     -0.848710
     36 O3          1.5020   -3.6420   -7.6880 o         1 MOL     -0.613710
     37 O4          1.9080   -9.0910   -5.4380 o         1 MOL     -0.866010
     38 O5         -1.3550  -17.5540   -8.8080 o         1 MOL     -0.851410
     39 O6          1.2780  -11.8630   -7.1870 os        1 MOL     -0.295410
     40 O7         -1.2720  -12.7530   -8.1910 os        1 MOL     -0.296910
     41 H1          5.6840   -6.2570   -5.2740 ha        1 MOL      0.139490
     42 H2          4.2060   -7.0050   -3.4280 ha        1 MOL      0.143590
     43 H3          4.7200   -5.1950   -7.2840 ha        1 MOL      0.145390
     44 H4          1.7590   -6.6880   -3.5900 ha        1 MOL      0.143990
     45 H5         -2.5150   -8.4240   -8.3220 ha        1 MOL      0.108990
     46 H6         -2.9260  -10.8260   -8.6910 ha        1 MOL      0.154390
     47 H7         -2.4460   -6.1770   -2.0400 ha        1 MOL      0.128390
     48 H8         -2.7850   -5.0750   -3.4990 ha        1 MOL      0.120690
     49 H9         -1.5240   -7.8710   -3.4800 ha        1 MOL      0.145490
     50 H10        -2.4320   -6.8480  -12.7510 hc        1 MOL      0.039690
     51 H11        -0.8640   -6.5030  -13.4780 hc        1 MOL      0.037590
     52 H12        -1.9460   -4.3970  -12.8440 hc        1 MOL      0.034590
     53 H13        -2.1970   -4.9670  -11.1960 hc        1 MOL      0.036390
     54 H14        -1.3840   -7.4430  -10.6170 hc        1 MOL      0.045290
     55 H15        -0.6400   -8.3760  -11.9130 hc        1 MOL      0.048890
     56 H16         0.4850   -4.3990  -12.5470 hc        1 MOL      0.039990
     57 H17        -0.2640   -3.4620  -11.2570 hc        1 MOL      0.033390
     58 H18         1.0480   -7.4610  -10.3210 hc        1 MOL      0.054990
     59 H19         1.3000   -6.8830  -11.9660 hc        1 MOL      0.039090
     60 H20         1.7960  -13.8380   -7.3080 h1        1 MOL      0.084290
     61 H21         1.3050  -13.0910   -8.8410 h1        1 MOL      0.058690
     62 H22        -0.0570   -5.3510   -9.6880 hc        1 MOL      0.055790
     63 H23        -0.5850  -13.6070   -6.4480 h1        1 MOL      0.060490
     64 H24        -0.0380   -5.1880   -4.6720 hx        1 MOL      0.101490
     65 H25         0.0890   -4.8730   -6.4090 hx        1 MOL      0.119490
     66 H26         0.6840   -6.9300   -7.6950 hx        1 MOL      0.126590
     67 H27        -1.0560   -6.6520   -7.8600 hx        1 MOL      0.069290
     68 H28        -2.1950   -5.8350   -5.7150 hx        1 MOL      0.091690
     69 H29        -2.3380   -7.5930   -5.9360 hx        1 MOL      0.103990
     70 H30        -2.0760  -15.5410   -6.6480 hc        1 MOL      0.021790
     71 H31        -2.7190  -14.8640   -8.1440 hc        1 MOL      0.034390
     72 H32         1.9070   -3.7440  -10.1990 h1        1 MOL      0.057090
     73 H33         2.6540   -5.1330  -11.0230 h1        1 MOL      0.064590
     74 H34        -0.3800  -15.0210   -9.1310 hc        1 MOL      0.065390
     75 H35         0.1750  -15.6740   -7.5930 hc        1 MOL      0.056490
     76 H36         2.9550   -6.1830   -9.0090 hn        1 MOL      0.334590
     77 H37         0.0990   -7.5950   -5.3510 hn        1 MOL      0.493490
@<TRIPOS>BOND
     1    1    2 ar  
     2    1    3 ar  
     3    2    4 ar  
     4    3    7 ar  
     5    4    9 ar  
     6    5    6 ar  
     7    5   10 ar  
     8    6   11 ar  
     9    7    9 ar  
    10    7   15 1   
    11    8   10 ar  
    12    8   12 ar  
    13    8   16 1   
    14    9   26 1   
    15   10   27 1   
    16   11   12 ar  
    17   11   40 1   
    18   12   39 1   
    19   13   14 2   
    20   14   28 1   
    21   15   32 1   
    22   15   36 2   
    23   16   34 1   
    24   16   37 1   
    25   17   29 1   
    26   17   35 1   
    27   17   38 1   
    28   18   19 1   
    29   18   20 1   
    30   19   21 1   
    31   20   22 1   
    32   21   24 1   
    33   22   24 1   
    34   23   25 1   
    35   23   39 1   
    36   24   30 1   
    37   25   31 1   
    38   25   40 1   
    39   26   33 1   
    40   27   33 1   
    41   28   33 1   
    42   29   31 1   
    43   30   32 1   
    44    1   41 1   
    45    2   42 1   
    46    3   43 1   
    47    4   44 1   
    48    5   45 1   
    49    6   46 1   
    50   13   47 1   
    51   13   48 1   
    52   14   49 1   
    53   18   50 1   
    54   18   51 1   
    55   19   52 1   
    56   19   53 1   
    57   20   54 1   
    58   20   55 1   
    59   21   56 1   
    60   21   57 1   
    61   22   58 1   
    62   22   59 1   
    63   23   60 1   
    64   23   61 1   
    65   24   62 1   
    66   25   63 1   
    67   26   64 1   
    68   26   65 1   
    69   27   66 1   
    70   27   67 1   
    71   28   68 1   
    72   28   69 1   
    73   29   70 1   
    74   29   71 1   
    75   30   72 1   
    76   30   73 1   
    77   31   74 1   
    78   31   75 1   
    79   32   76 1   
    80   33   77 1   
@<TRIPOS>SUBSTRUCTURE
     1 MOL         1 TEMP              0 ****  ****    0 ROOT
