@<TRIPOS>MOLECULE
AVX101124_1
   57    60     1     0     0
SMALL
No Charge or Current Charge


@<TRIPOS>ATOM
      1 C1          2.6140   -0.5420   -3.0070 ca        1 MOL     -0.130805
      2 C2          1.4910   -1.3600   -3.1980 ca        1 MOL     -0.132405
      3 C3          2.7290    0.2560   -1.8660 ca        1 MOL     -0.082405
      4 C4          4.1250    2.9260   -0.3170 ca        1 MOL     -0.140805
      5 C5          0.4690   -1.3910   -2.2480 ca        1 MOL     -0.129605
      6 C6          5.4180    3.1350   -0.8030 ca        1 MOL     -0.138905
      7 C7          1.7070    0.2220   -0.9260 ca        1 MOL     -0.043105
      8 C8          3.8360    1.8160    0.4950 ca        1 MOL     -0.067505
      9 C9          4.8370    0.9000    0.8300 ca        1 MOL     -0.072505
     10 C10         0.5860   -0.5910   -1.1210 ca        1 MOL     -0.092905
     11 C11         6.3880    2.2160   -0.4570 ca        1 MOL      0.044095
     12 C12         6.1050    1.1290    0.3380 ca        1 MOL      0.069395
     13 C13         1.5490    0.9440    0.3350 ce        1 MOL     -0.094205
     14 C14         2.4930    1.6510    0.9660 cf        1 MOL     -0.036205
     15 C15         4.5710   -0.2730    1.6810 c         1 MOL      0.925195
     16 C16        -1.7540    2.2280    1.3430 c         1 MOL      0.653995
     17 C17        -0.3710   -0.5180    0.0320 c3        1 MOL     -0.046905
     18 C18         8.2030    1.0700   -0.1880 c3        1 MOL      0.317395
     19 C19         0.1420    0.6940    0.8320 c3        1 MOL      0.138195
     20 C20        -2.4100    3.4980    0.8240 c3        1 MOL     -0.161305
     21 C21        -3.6300    3.9360    1.6330 c3        1 MOL     -0.072005
     22 C22        -4.2610    5.2210    1.0870 c3        1 MOL     -0.095005
     23 C23        -5.4650    5.6470    1.9340 c3        1 MOL     -0.116505
     24 C24        -6.1290    6.9280    1.4440 c3        1 MOL      0.113995
     25 N1         -0.6540    1.8730    0.5760 n         1 MOL     -0.550905
     26 N2         -6.6280    6.7620    0.0580 n4        1 MOL     -0.874405
     27 O1          4.7090   -0.1560    2.9560 o         1 MOL     -0.786705
     28 O2          4.2090   -1.3740    1.1210 o         1 MOL     -0.799905
     29 O3         -2.1760    1.6000    2.3090 o         1 MOL     -0.629105
     30 O4          7.6950    2.2550   -0.8340 os        1 MOL     -0.347605
     31 O5          7.1990    0.3510    0.5580 os        1 MOL     -0.311405
     32 H1          3.4020   -0.5290   -3.7550 ha        1 MOL      0.131995
     33 H2          1.4200   -1.9760   -4.0890 ha        1 MOL      0.120895
     34 H3          3.6020    0.8850   -1.7340 ha        1 MOL      0.160095
     35 H4          3.3460    3.6400   -0.5770 ha        1 MOL      0.123795
     36 H5         -0.3940   -2.0330   -2.3910 ha        1 MOL      0.123295
     37 H6          5.6440    3.9900   -1.4300 ha        1 MOL      0.141295
     38 H7          2.2250    2.1100    1.9160 ha        1 MOL      0.138295
     39 H8         -1.4060   -0.3990   -0.3040 hc        1 MOL      0.047695
     40 H9         -0.2820   -1.4350    0.6250 hc        1 MOL      0.069695
     41 H10         8.6170    0.4030   -0.9530 h2        1 MOL      0.061895
     42 H11         9.0070    1.3620    0.4970 h2        1 MOL      0.061795
     43 H12         0.1010    0.4990    1.9080 h1        1 MOL      0.092295
     44 H13        -1.6670    4.3030    0.7920 hc        1 MOL      0.068795
     45 H14        -2.7230    3.2960   -0.2080 hc        1 MOL      0.072995
     46 H15        -4.3760    3.1320    1.5970 hc        1 MOL      0.053795
     47 H16        -3.3590    4.0710    2.6870 hc        1 MOL      0.068895
     48 H17        -4.5820    5.0590    0.0510 hc        1 MOL      0.030095
     49 H18        -3.5140    6.0210    1.0730 hc        1 MOL      0.066195
     50 H19        -6.2150    4.8460    1.9150 hc        1 MOL      0.074595
     51 H20        -5.1560    5.7650    2.9800 hc        1 MOL      0.097695
     52 H21        -6.9850    7.2130    2.0620 hx        1 MOL      0.091795
     53 H22        -5.4100    7.7530    1.4190 hx        1 MOL      0.103295
     54 H23        -0.3950    2.4710   -0.2030 hn        1 MOL      0.321795
     55 H24        -6.6420    5.7730   -0.2130 hn        1 MOL      0.462495
     56 H25        -6.0310    7.2630   -0.6100 hn        1 MOL      0.459895
     57 H26        -7.5820    7.1290   -0.0360 hn        1 MOL      0.445495
@<TRIPOS>BOND
     1    1    2 ar  
     2    1    3 ar  
     3    2    5 ar  
     4    3    7 ar  
     5    4    6 ar  
     6    4    8 ar  
     7    5   10 ar  
     8    6   11 ar  
     9    7   10 ar  
    10    7   13 1   
    11    8    9 ar  
    12    8   14 1   
    13    9   12 ar  
    14    9   15 1   
    15   10   17 1   
    16   11   12 ar  
    17   11   30 1   
    18   12   31 1   
    19   13   14 2   
    20   13   19 1   
    21   15   27 1   
    22   15   28 1   
    23   16   20 1   
    24   16   25 1   
    25   16   29 2   
    26   17   19 1   
    27   18   30 1   
    28   18   31 1   
    29   19   25 1   
    30   20   21 1   
    31   21   22 1   
    32   22   23 1   
    33   23   24 1   
    34   24   26 1   
    35    1   32 1   
    36    2   33 1   
    37    3   34 1   
    38    4   35 1   
    39    5   36 1   
    40    6   37 1   
    41   14   38 1   
    42   17   39 1   
    43   17   40 1   
    44   18   41 1   
    45   18   42 1   
    46   19   43 1   
    47   20   44 1   
    48   20   45 1   
    49   21   46 1   
    50   21   47 1   
    51   22   48 1   
    52   22   49 1   
    53   23   50 1   
    54   23   51 1   
    55   24   52 1   
    56   24   53 1   
    57   25   54 1   
    58   26   55 1   
    59   26   56 1   
    60   26   57 1   
@<TRIPOS>SUBSTRUCTURE
     1 MOL         1 TEMP              0 ****  ****    0 ROOT
