@<TRIPOS>MOLECULE
AVX-17389_0
   24    25     1     0     0
SMALL
No Charge or Current Charge


@<TRIPOS>ATOM
      1 C1          0.8730    1.2790    1.5060 ca        1 MOL     -0.148996
      2 C2         -0.1480    0.4790    0.9640 ca        1 MOL     -0.096496
      3 C3          0.7040    1.9050    2.7440 ca        1 MOL     -0.115996
      4 C4         -1.3490    0.2940    1.6530 ca        1 MOL     -0.100796
      5 C5         -0.4910    1.7070    3.4040 ca        1 MOL      0.039304
      6 C6         -1.4900    0.9230    2.8730 ca        1 MOL      0.087804
      7 C7         -2.4050   -0.5330    1.0940 c         1 MOL      0.659104
      8 C8         -4.9550   -2.5680    2.8870 c         1 MOL      0.908904
      9 C9         -2.1590    1.6920    4.7820 c3        1 MOL      0.319404
     10 C10        -4.3190   -2.0720    1.5990 c3        1 MOL     -0.044796
     11 N1         -3.2410   -1.1970    2.0000 n         1 MOL     -0.512596
     12 O1         -5.4230   -1.6660    3.6380 o         1 MOL     -0.835096
     13 O2         -2.5300   -0.6500   -0.1390 o         1 MOL     -0.643996
     14 O3         -4.9460   -3.8220    3.0420 o         1 MOL     -0.831796
     15 O4         -0.8330    2.2330    4.6120 os        1 MOL     -0.347696
     16 O5         -2.5830    0.8600    3.6830 os        1 MOL     -0.309296
     17 H1          1.8010    1.4110    0.9570 ha        1 MOL      0.129904
     18 H2          0.0100    0.0040   -0.0020 ha        1 MOL      0.155904
     19 H3          1.4900    2.5220    3.1650 ha        1 MOL      0.142504
     20 H4         -2.1780    1.0950    5.7010 h2        1 MOL      0.067104
     21 H5         -2.8660    2.5220    4.8870 h2        1 MOL      0.067604
     22 H6         -5.0460   -1.5270    0.9890 h1        1 MOL      0.033504
     23 H7         -3.9320   -2.9080    1.0080 h1        1 MOL      0.041004
     24 H8         -3.0560   -1.1170    2.9940 hn        1 MOL      0.335504
@<TRIPOS>BOND
     1    1    2 ar  
     2    1    3 ar  
     3    2    4 ar  
     4    3    5 ar  
     5    4    6 ar  
     6    4    7 1   
     7    5    6 ar  
     8    5   15 1   
     9    6   16 1   
    10    7   11 1   
    11    7   13 2   
    12    8   10 1   
    13    8   12 1   
    14    8   14 1   
    15    9   15 1   
    16    9   16 1   
    17   10   11 1   
    18    1   17 1   
    19    2   18 1   
    20    3   19 1   
    21    9   20 1   
    22    9   21 1   
    23   10   22 1   
    24   10   23 1   
    25   11   24 1   
@<TRIPOS>SUBSTRUCTURE
     1 MOL         1 TEMP              0 ****  ****    0 ROOT
