@<TRIPOS>MOLECULE
AVX38784_1
   68    70     1     0     0
SMALL
No Charge or Current Charge


@<TRIPOS>ATOM
      1 C1          1.1320   -4.9530    5.1710 ca        1 MOL     -0.084698
      2 C2          0.5860   -5.0940    3.8950 ca        1 MOL     -0.094699
      3 C3          2.3770   -4.3460    5.3330 ca        1 MOL     -0.101298
      4 C4          1.2840   -4.6280    2.7820 ca        1 MOL     -0.090898
      5 C5          1.9000    0.5450   -0.2740 ca        1 MOL     -0.105699
      6 C6          1.8180    1.9330   -0.3820 ca        1 MOL     -0.101399
      7 C7          3.0760   -3.8800    4.2190 ca        1 MOL     -0.126499
      8 C8          1.6270    0.7090    2.1230 ca        1 MOL     -0.103399
      9 C9          2.5300   -4.0210    2.9440 ca        1 MOL     -0.133599
     10 C10         1.8110   -0.0660    0.9780 ca        1 MOL     -0.132799
     11 C11         1.6480    2.7100    0.7650 ca        1 MOL      0.098101
     12 C12         1.5310    2.0970    2.0140 ca        1 MOL      0.113601
     13 C13         4.3750   -3.2500    4.4170 c         1 MOL      0.653601
     14 C14         1.5220    0.0640    3.4290 c         1 MOL      0.646101
     15 C15         1.8710    8.3390    0.3210 c         1 MOL      0.631301
     16 C16         0.9030    4.1430    2.9130 c3        1 MOL      0.089901
     17 C17         1.7730    4.7730    1.8330 c3        1 MOL      0.100501
     18 C18         5.3460   -1.7000    7.9960 c3        1 MOL     -0.095398
     19 C19         5.8280   -0.3110    4.3970 c3        1 MOL     -0.113898
     20 C20         4.3850   -1.5220    0.7720 c3        1 MOL      0.086202
     21 C21         3.2600   -3.5290    1.7290 c3        1 MOL      0.165402
     22 C22         1.9100   -1.5550    1.0580 c3        1 MOL      0.157602
     23 C23         2.2560    6.8950    0.5300 c3        1 MOL     -0.128299
     24 C24         1.3950    6.2280    1.5960 c3        1 MOL     -0.074699
     25 C25         5.5600   -0.6940    6.8720 c3        1 MOL     -0.096099
     26 C26         5.6140   -1.3550    5.4890 c3        1 MOL      0.092801
     27 N1          4.4080   -2.1040    5.2180 n         1 MOL     -0.542199
     28 N2          3.2200   -2.0290    1.5820 n4        1 MOL     -0.689799
     29 O1          5.3890   -3.7160    3.8710 o         1 MOL     -0.639899
     30 O2          0.6620   -0.7580    3.7470 o         1 MOL     -0.536799
     31 O3          1.0340    8.9250    0.9960 o         1 MOL     -0.540498
     32 O4          1.3300    2.8020    3.1710 os        1 MOL     -0.298198
     33 O5          1.5950    4.0680    0.5970 os        1 MOL     -0.302999
     34 O6          2.4960    0.4720    4.2850 oh        1 MOL     -0.578699
     35 O7          2.5690    8.9310   -0.6790 oh        1 MOL     -0.604899
     36 H1          0.5880   -5.3150    6.0380 ha        1 MOL      0.162201
     37 H2         -0.3840   -5.5670    3.7700 ha        1 MOL      0.160902
     38 H3          2.7930   -4.2430    6.3320 ha        1 MOL      0.157102
     39 H4          0.8490   -4.7420    1.7920 ha        1 MOL      0.145702
     40 H5          2.0390   -0.0520   -1.1710 ha        1 MOL      0.149502
     41 H6          1.8990    2.4010   -1.3590 ha        1 MOL      0.177802
     42 H7          0.9870    4.7000    3.8520 h1        1 MOL      0.108202
     43 H8         -0.1560    4.1210    2.6250 h1        1 MOL      0.077901
     44 H9          2.8350    4.7150    2.1070 h1        1 MOL      0.080602
     45 H10         6.1410   -2.4520    8.0170 hc        1 MOL      0.037802
     46 H11         5.3450   -1.1880    8.9630 hc        1 MOL      0.054201
     47 H12         4.3870   -2.2150    7.8840 hc        1 MOL      0.022502
     48 H13         5.0190    0.4260    4.3960 hc        1 MOL      0.044201
     49 H14         6.7770    0.2200    4.5360 hc        1 MOL      0.061201
     50 H15         5.8570   -0.7830    3.4090 hc        1 MOL      0.040002
     51 H16         4.2860   -1.9180   -0.2400 hx        1 MOL      0.089001
     52 H17         4.3430   -0.4310    0.7720 hx        1 MOL      0.104101
     53 H18         5.3020   -1.8790    1.2450 hx        1 MOL      0.108502
     54 H19         4.3170   -3.8140    1.7600 hx        1 MOL      0.120702
     55 H20         2.8290   -3.9460    0.8120 hx        1 MOL      0.098701
     56 H21         1.1410   -1.9740    1.7200 hx        1 MOL      0.130902
     57 H22         1.7830   -2.0200    0.0720 hx        1 MOL      0.098601
     58 H23         3.3230    6.8100    0.7640 hc        1 MOL      0.087802
     59 H24         2.1190    6.3870   -0.4320 hc        1 MOL      0.096301
     60 H25         0.3470    6.2690    1.2790 hc        1 MOL      0.079602
     61 H26         1.4670    6.7770    2.5420 hc        1 MOL      0.081801
     62 H27         4.7380    0.0320    6.8980 hc        1 MOL      0.050202
     63 H28         6.4860   -0.1390    7.0640 hc        1 MOL      0.068701
     64 H29         6.4420   -2.0730    5.4570 h1        1 MOL      0.082301
     65 H30         3.5400   -1.7310    5.5880 hn        1 MOL      0.321701
     66 H31         3.3370   -1.6410    2.5320 hn        1 MOL      0.477002
     67 H32         2.4340    0.0440    5.1650 ho        1 MOL      0.455002
     68 H33         2.3620    9.8770   -0.8350 ho        1 MOL      0.451502
@<TRIPOS>BOND
     1    1    2 ar  
     2    1    3 ar  
     3    2    4 ar  
     4    3    7 ar  
     5    4    9 ar  
     6    5    6 ar  
     7    5   10 ar  
     8    6   11 ar  
     9    7    9 ar  
    10    7   13 1   
    11    8   10 ar  
    12    8   12 ar  
    13    8   14 1   
    14    9   21 1   
    15   10   22 1   
    16   11   12 ar  
    17   11   33 1   
    18   12   32 1   
    19   13   27 1   
    20   13   29 2   
    21   14   30 2   
    22   14   34 1   
    23   15   23 1   
    24   15   31 2   
    25   15   35 1   
    26   16   17 1   
    27   16   32 1   
    28   17   24 1   
    29   17   33 1   
    30   18   25 1   
    31   19   26 1   
    32   20   28 1   
    33   21   28 1   
    34   22   28 1   
    35   23   24 1   
    36   25   26 1   
    37   26   27 1   
    38    1   36 1   
    39    2   37 1   
    40    3   38 1   
    41    4   39 1   
    42    5   40 1   
    43    6   41 1   
    44   16   42 1   
    45   16   43 1   
    46   17   44 1   
    47   18   45 1   
    48   18   46 1   
    49   18   47 1   
    50   19   48 1   
    51   19   49 1   
    52   19   50 1   
    53   20   51 1   
    54   20   52 1   
    55   20   53 1   
    56   21   54 1   
    57   21   55 1   
    58   22   56 1   
    59   22   57 1   
    60   23   58 1   
    61   23   59 1   
    62   24   60 1   
    63   24   61 1   
    64   25   62 1   
    65   25   63 1   
    66   26   64 1   
    67   27   65 1   
    68   28   66 1   
    69   34   67 1   
    70   35   68 1   
@<TRIPOS>SUBSTRUCTURE
     1 MOL         1 TEMP              0 ****  ****    0 ROOT
