@<TRIPOS>MOLECULE
AVX38741_0
   66    70     1     0     0
SMALL
No Charge or Current Charge


@<TRIPOS>ATOM
      1 C1          1.8440    4.4900    3.6950 ca        1 MOL     -0.121299
      2 C2         -0.6850   -3.0400   -0.1720 ca        1 MOL     -0.136699
      3 C3         -1.9580   -2.4760   -0.1180 ca        1 MOL     -0.110998
      4 C4          1.4480    4.9530    2.4400 ca        1 MOL     -0.132498
      5 C5          2.4950    3.2620    3.8110 ca        1 MOL     -0.135599
      6 C6          0.4430   -2.2440    0.0240 ca        1 MOL     -0.079898
      7 C7         -2.1110   -1.1130    0.1410 ca        1 MOL     -0.131599
      8 C8          1.7040    4.1880    1.3020 ca        1 MOL     -0.103098
      9 C9          2.7520    2.4970    2.6730 ca        1 MOL     -0.112499
     10 C10        -1.0340    3.4990   -3.4800 ca        1 MOL     -0.138498
     11 C11        -0.7850    4.6510   -4.2270 ca        1 MOL     -0.099999
     12 C12         0.2920   -0.8740    0.2680 ca        1 MOL     -0.129599
     13 C13        -1.7380    4.8570   -1.6080 ca        1 MOL     -0.087299
     14 C14        -0.9900   -0.2970    0.3440 ca        1 MOL     -0.088799
     15 C15         2.3560    2.9610    1.4180 ca        1 MOL     -0.117598
     16 C16        -1.5040    3.6020   -2.1700 ca        1 MOL     -0.040799
     17 C17        -1.0050    5.9070   -3.6600 ca        1 MOL      0.052201
     18 C18        -1.5020    6.0090   -2.3580 ca        1 MOL      0.095701
     19 C19         1.5160   -0.0570    0.4750 c         1 MOL      0.710302
     20 C20        -2.2410    4.9600   -0.2410 c         1 MOL      0.671401
     21 C21         0.5360   10.5210   -6.5340 c         1 MOL      0.634001
     22 C22        -1.1670    1.1720    0.6520 c3        1 MOL      0.198301
     23 C23        -1.8300    8.2810   -2.7080 c3        1 MOL      0.093102
     24 C24         0.5300    1.6740   -1.0660 c3        1 MOL      0.331002
     25 C25        -0.6450    8.2050   -3.6610 c3        1 MOL      0.101302
     26 C26         2.6320    2.1370    0.1940 c3        1 MOL      0.139301
     27 C27        -1.7540    2.3430   -1.3930 c3        1 MOL      0.200501
     28 C28         0.5440    9.3430   -5.5920 c3        1 MOL     -0.127099
     29 C29        -0.6380    9.3790   -4.6300 c3        1 MOL     -0.074299
     30 N1          1.5410    1.2200   -0.1030 n         1 MOL     -0.460398
     31 N2         -0.7090    2.0960   -0.3990 n3        1 MOL     -0.734899
     32 O1          2.4200   -0.5410    1.1540 o         1 MOL     -0.632298
     33 O2         -3.3070    4.4900    0.1600 o         1 MOL     -0.534099
     34 O3         -0.2680   11.4420   -6.4670 o         1 MOL     -0.548998
     35 O4         -1.7700    7.2120   -1.7590 os        1 MOL     -0.303499
     36 O5         -0.7230    7.0000   -4.4350 os        1 MOL     -0.317698
     37 O6         -1.3930    5.6440    0.5710 oh        1 MOL     -0.593998
     38 O7          1.5330   10.4690   -7.4510 oh        1 MOL     -0.606298
     39 H1          1.6450    5.0860    4.5810 ha        1 MOL      0.127501
     40 H2         -0.5700   -4.1030   -0.3650 ha        1 MOL      0.138501
     41 H3         -2.8330   -3.0980   -0.2810 ha        1 MOL      0.135301
     42 H4          0.9410    5.9090    2.3490 ha        1 MOL      0.130201
     43 H5          2.8050    2.9020    4.7880 ha        1 MOL      0.130201
     44 H6          1.4270   -2.7040   -0.0040 ha        1 MOL      0.154102
     45 H7         -3.1130   -0.6920    0.1770 ha        1 MOL      0.136301
     46 H8          1.3920    4.5570    0.3280 ha        1 MOL      0.138001
     47 H9          3.2600    1.5420    2.7740 ha        1 MOL      0.140301
     48 H10        -0.8530    2.5250   -3.9270 ha        1 MOL      0.144401
     49 H11        -0.4090    4.5610   -5.2420 ha        1 MOL      0.156802
     50 H12        -2.2350    1.3530    0.8350 h1        1 MOL      0.064502
     51 H13        -0.6950    1.4220    1.6120 h1        1 MOL      0.081102
     52 H14        -1.8150    9.2200   -2.1440 h1        1 MOL      0.091702
     53 H15        -2.7880    8.2200   -3.2390 h1        1 MOL      0.065902
     54 H16         0.9680    2.4880   -1.6590 h2        1 MOL      0.074802
     55 H17         0.3190    0.8520   -1.7600 h2        1 MOL      0.030701
     56 H18         0.3010    8.1900   -3.1040 h1        1 MOL      0.073101
     57 H19         2.7780    2.7810   -0.6800 h1        1 MOL      0.058501
     58 H20         3.5440    1.5440    0.3160 h1        1 MOL      0.077301
     59 H21        -2.7140    2.3980   -0.8670 h1        1 MOL      0.072101
     60 H22        -1.7970    1.4730   -2.0570 h1        1 MOL      0.036701
     61 H23         1.4970    9.2840   -5.0540 hc        1 MOL      0.088601
     62 H24         0.4940    8.4400   -6.2110 hc        1 MOL      0.090401
     63 H25        -1.5670    9.3560   -5.2120 hc        1 MOL      0.075102
     64 H26        -0.6370   10.3150   -4.0610 hc        1 MOL      0.073802
     65 H27        -1.7220    5.7170    1.4920 ho        1 MOL      0.440902
     66 H28         1.5750   11.2280   -8.0720 ho        1 MOL      0.446402
@<TRIPOS>BOND
     1    1    4 ar  
     2    1    5 ar  
     3    2    3 ar  
     4    2    6 ar  
     5    3    7 ar  
     6    4    8 ar  
     7    5    9 ar  
     8    6   12 ar  
     9    7   14 ar  
    10    8   15 ar  
    11    9   15 ar  
    12   10   11 ar  
    13   10   16 ar  
    14   11   17 ar  
    15   12   14 ar  
    16   12   19 1   
    17   13   16 ar  
    18   13   18 ar  
    19   13   20 1   
    20   14   22 1   
    21   15   26 1   
    22   16   27 1   
    23   17   18 ar  
    24   17   36 1   
    25   18   35 1   
    26   19   30 1   
    27   19   32 2   
    28   20   33 2   
    29   20   37 1   
    30   21   28 1   
    31   21   34 2   
    32   21   38 1   
    33   22   31 1   
    34   23   25 1   
    35   23   35 1   
    36   24   30 1   
    37   24   31 1   
    38   25   29 1   
    39   25   36 1   
    40   26   30 1   
    41   27   31 1   
    42   28   29 1   
    43    1   39 1   
    44    2   40 1   
    45    3   41 1   
    46    4   42 1   
    47    5   43 1   
    48    6   44 1   
    49    7   45 1   
    50    8   46 1   
    51    9   47 1   
    52   10   48 1   
    53   11   49 1   
    54   22   50 1   
    55   22   51 1   
    56   23   52 1   
    57   23   53 1   
    58   24   54 1   
    59   24   55 1   
    60   25   56 1   
    61   26   57 1   
    62   26   58 1   
    63   27   59 1   
    64   27   60 1   
    65   28   61 1   
    66   28   62 1   
    67   29   63 1   
    68   29   64 1   
    69   37   65 1   
    70   38   66 1   
@<TRIPOS>SUBSTRUCTURE
     1 MOL         1 TEMP              0 ****  ****    0 ROOT
