@<TRIPOS>MOLECULE
AVX17587_2
   59    62     1     0     0
SMALL
No Charge or Current Charge


@<TRIPOS>ATOM
      1 C1         -2.0130    1.1300   -1.6260 ca        1 MOL     -0.134503
      2 C2         -1.6940    2.0340   -0.6020 ca        1 MOL     -0.132603
      3 C3         -1.3990   -0.1210   -1.6860 ca        1 MOL     -0.124703
      4 C4         -0.7560    1.6990    0.3780 ca        1 MOL     -0.106203
      5 C5          2.4930   -0.4710    3.8090 ca        1 MOL     -0.151603
      6 C6          3.3820   -1.1220    4.6680 ca        1 MOL     -0.138703
      7 C7          4.3020    0.0590    2.2680 ca        1 MOL     -0.085603
      8 C8         -0.4610   -0.4410   -0.7180 ca        1 MOL     -0.092303
      9 C9         -0.1380    0.4590    0.3070 ca        1 MOL     -0.080203
     10 C10         2.9500    0.1160    2.6160 ca        1 MOL     -0.067703
     11 C11         4.7120   -1.1640    4.3010 ca        1 MOL      0.024397
     12 C12         5.1590   -0.5890    3.1330 ca        1 MOL      0.057297
     13 C13         4.8060    0.6650    1.0250 c         1 MOL      0.926797
     14 C14         2.9460   -3.2330    0.7380 c         1 MOL      0.657697
     15 C15         0.2910   -1.7250   -0.5660 c3        1 MOL     -0.042803
     16 C16         6.8470   -1.4810    4.1520 c3        1 MOL      0.317597
     17 C17         0.8650   -0.1480    1.2510 c3        1 MOL     -0.028803
     18 C18         1.4300   -1.2960    0.3780 c3        1 MOL      0.088397
     19 C19         1.9530    0.8060    1.7240 c3        1 MOL     -0.034103
     20 C20         3.2340   -4.3220    1.7580 c3        1 MOL     -0.159703
     21 C21         4.3560   -5.2730    1.3430 c3        1 MOL     -0.072203
     22 C22         4.6240   -6.3540    2.3960 c3        1 MOL     -0.096803
     23 C23         5.7690   -7.2740    1.9620 c3        1 MOL     -0.107703
     24 C24         6.0890   -8.3650    2.9780 c3        1 MOL      0.111497
     25 N1          1.9220   -2.3970    1.1600 n         1 MOL     -0.538403
     26 N2          4.9110   -9.2360    3.1990 n4        1 MOL     -0.877803
     27 O1          4.8360   -0.0510   -0.0450 o         1 MOL     -0.785403
     28 O2          5.1990    1.8910    1.0480 o         1 MOL     -0.788403
     29 O3          3.5430   -3.1360   -0.3300 o         1 MOL     -0.632103
     30 O4          5.7170   -1.7510    5.0060 os        1 MOL     -0.355203
     31 O5          6.5000   -0.7440    2.9620 os        1 MOL     -0.323303
     32 H1         -2.7500    1.4060   -2.3760 ha        1 MOL      0.124497
     33 H2         -2.1880    3.0010   -0.5660 ha        1 MOL      0.130097
     34 H3         -1.6540   -0.8230   -2.4720 ha        1 MOL      0.126497
     35 H4         -0.5280    2.3980    1.1750 ha        1 MOL      0.152297
     36 H5          1.4390   -0.4220    4.0730 ha        1 MOL      0.128997
     37 H6          3.0340   -1.5760    5.5890 ha        1 MOL      0.140097
     38 H7         -0.3540   -2.4880   -0.1160 hc        1 MOL      0.051597
     39 H8          0.6840   -2.0920   -1.5190 hc        1 MOL      0.066197
     40 H9          7.5850   -0.9020    4.7200 h2        1 MOL      0.060797
     41 H10         7.2990   -2.4340    3.8560 h2        1 MOL      0.054797
     42 H11         0.3270   -0.5530    2.1180 hc        1 MOL      0.074497
     43 H12         2.2740   -0.9330   -0.2260 h1        1 MOL      0.109397
     44 H13         1.4980    1.6480    2.2580 hc        1 MOL      0.071797
     45 H14         2.4670    1.2380    0.8580 hc        1 MOL      0.078197
     46 H15         3.4650   -3.8620    2.7260 hc        1 MOL      0.069197
     47 H16         2.3080   -4.8990    1.8790 hc        1 MOL      0.068497
     48 H17         4.0670   -5.7590    0.4030 hc        1 MOL      0.055197
     49 H18         5.2760   -4.7120    1.1420 hc        1 MOL      0.066797
     50 H19         3.7150   -6.9480    2.5490 hc        1 MOL      0.037197
     51 H20         4.8670   -5.8820    3.3540 hc        1 MOL      0.065397
     52 H21         5.4990   -7.7590    1.0160 hc        1 MOL      0.067697
     53 H22         6.6680   -6.6760    1.7640 hc        1 MOL      0.090297
     54 H23         6.9090   -9.0090    2.6480 hx        1 MOL      0.090497
     55 H24         6.3400   -7.9290    3.9490 hx        1 MOL      0.098897
     56 H25         1.4980   -2.5730    2.0670 hn        1 MOL      0.316997
     57 H26         4.2020   -9.0890    2.4720 hn        1 MOL      0.458997
     58 H27         4.4760   -9.0430    4.1080 hn        1 MOL      0.471497
     59 H28         5.1780  -10.2270    3.1820 hn        1 MOL      0.446297
@<TRIPOS>BOND
     1    1    2 ar  
     2    1    3 ar  
     3    2    4 ar  
     4    3    8 ar  
     5    4    9 ar  
     6    5    6 ar  
     7    5   10 ar  
     8    6   11 ar  
     9    7   10 ar  
    10    7   12 ar  
    11    7   13 1   
    12    8    9 ar  
    13    8   15 1   
    14    9   17 1   
    15   10   19 1   
    16   11   12 ar  
    17   11   30 1   
    18   12   31 1   
    19   13   27 1   
    20   13   28 1   
    21   14   20 1   
    22   14   25 1   
    23   14   29 2   
    24   15   18 1   
    25   16   30 1   
    26   16   31 1   
    27   17   18 1   
    28   17   19 1   
    29   18   25 1   
    30   20   21 1   
    31   21   22 1   
    32   22   23 1   
    33   23   24 1   
    34   24   26 1   
    35    1   32 1   
    36    2   33 1   
    37    3   34 1   
    38    4   35 1   
    39    5   36 1   
    40    6   37 1   
    41   15   38 1   
    42   15   39 1   
    43   16   40 1   
    44   16   41 1   
    45   17   42 1   
    46   18   43 1   
    47   19   44 1   
    48   19   45 1   
    49   20   46 1   
    50   20   47 1   
    51   21   48 1   
    52   21   49 1   
    53   22   50 1   
    54   22   51 1   
    55   23   52 1   
    56   23   53 1   
    57   24   54 1   
    58   24   55 1   
    59   25   56 1   
    60   26   57 1   
    61   26   58 1   
    62   26   59 1   
@<TRIPOS>SUBSTRUCTURE
     1 MOL         1 TEMP              0 ****  ****    0 ROOT
