@<TRIPOS>MOLECULE
AVX-15988_0
   19    20     1     0     0
SMALL
No Charge or Current Charge


@<TRIPOS>ATOM
      1 C1         -0.6740   -1.4090   -1.4800 ca        1 MOL     -0.081390
      2 C2          0.2170   -0.4690   -0.9560 ca        1 MOL     -0.125389
      3 C3          1.6760   -0.7190   -2.8730 ca        1 MOL     -0.020289
      4 C4          0.7920   -1.6710   -3.4250 ca        1 MOL      0.124110
      5 C5         -0.3680   -1.9990   -2.7160 ca        1 MOL     -0.095490
      6 C6          1.3780   -0.1270   -1.6420 ca        1 MOL      0.018410
      7 C7         -0.0590   -3.1480   -4.8250 cc        1 MOL      0.575611
      8 C8          2.9290   -0.3420   -3.6030 c3        1 MOL     -0.055089
      9 N1          0.9550   -2.3380   -4.6300 nd        1 MOL     -0.597290
     10 N2         -0.1990   -3.9480   -5.9160 nh        1 MOL     -0.866189
     11 S1         -1.2600   -3.1760   -3.6070 ss        1 MOL     -0.075289
     12 Cl1         2.4320    1.0460   -0.9340 cl        1 MOL     -0.094390
     13 H1         -1.5780   -1.6710   -0.9380 ha        1 MOL      0.144210
     14 H2         -0.0160   -0.0090    0.0020 ha        1 MOL      0.149311
     15 H3          2.7350    0.5040   -4.2690 hc        1 MOL      0.054810
     16 H4          3.7220   -0.0640   -2.9000 hc        1 MOL      0.051410
     17 H5          3.3040   -1.1820   -4.1970 hc        1 MOL      0.066511
     18 H6          0.4750   -3.9280   -6.6890 hn        1 MOL      0.417810
     19 H7         -1.0310   -4.5330   -6.0510 hn        1 MOL      0.408610
@<TRIPOS>BOND
     1    1    2 ar  
     2    1    5 ar  
     3    2    6 ar  
     4    3    4 ar  
     5    3    6 ar  
     6    3    8 1   
     7    4    5 ar  
     8    4    9 1   
     9    5   11 1   
    10    6   12 1   
    11    7    9 2   
    12    7   10 1   
    13    7   11 1   
    14    1   13 1   
    15    2   14 1   
    16    8   15 1   
    17    8   16 1   
    18    8   17 1   
    19   10   18 1   
    20   10   19 1   
@<TRIPOS>SUBSTRUCTURE
     1 MOL         1 TEMP              0 ****  ****    0 ROOT
