@<TRIPOS>MOLECULE
AVX38753_1
   73    76     1     0     0
SMALL
No Charge or Current Charge


@<TRIPOS>ATOM
      1 C1          2.8960   -7.7160    0.6270 ca        1 MOL     -0.120503
      2 C2          5.9310    0.0400   -2.1800 ca        1 MOL     -0.093403
      3 C3          3.2830   -6.8920    1.6830 ca        1 MOL     -0.141703
      4 C4          3.6250   -7.7150   -0.5620 ca        1 MOL     -0.127903
      5 C5          4.9950    0.8860   -1.5850 ca        1 MOL     -0.099303
      6 C6          6.3260   -1.1290   -1.5300 ca        1 MOL     -0.097803
      7 C7          4.4000   -6.0660    1.5510 ca        1 MOL     -0.128603
      8 C8          4.7410   -6.8900   -0.6950 ca        1 MOL     -0.110103
      9 C9          4.4530    0.5620   -0.3420 ca        1 MOL     -0.103703
     10 C10        -0.0160   -3.1210    1.2010 ca        1 MOL     -0.104703
     11 C11        -0.8100   -4.1460    0.6850 ca        1 MOL     -0.100503
     12 C12         5.7850   -1.4530   -0.2860 ca        1 MOL     -0.112703
     13 C13         1.3730   -3.1930   -0.7770 ca        1 MOL     -0.106903
     14 C14         5.1290   -6.0650    0.3620 ca        1 MOL     -0.125103
     15 C15         4.8480   -0.6070    0.3080 ca        1 MOL     -0.127203
     16 C16         1.0770   -2.6490    0.4730 ca        1 MOL     -0.126803
     17 C17        -0.5060   -4.7000   -0.5580 ca        1 MOL      0.096997
     18 C18         0.5710   -4.2090   -1.2990 ca        1 MOL      0.113897
     19 C19         1.4020   -2.0520    4.6350 c2        1 MOL     -0.131303
     20 C20         2.5500   -1.8390    3.9830 c2        1 MOL     -0.246203
     21 C21         6.2150   -2.6790    0.3710 c         1 MOL      0.649397
     22 C22         2.5110   -2.6880   -1.5390 c         1 MOL      0.660397
     23 C23        -1.2940   -9.2480   -1.1680 c         1 MOL      0.630997
     24 C24        -0.1630   -5.4540   -3.1150 c3        1 MOL      0.090697
     25 C25        -0.7170   -6.4370   -2.0920 c3        1 MOL      0.100297
     26 C26         6.3310   -5.1770    0.2180 c3        1 MOL      0.127997
     27 C27         4.2500   -0.9300    1.6460 c3        1 MOL      0.155997
     28 C28         1.9100   -1.5550    1.0580 c3        1 MOL      0.158397
     29 C29         3.0770   -2.7310    2.9080 c3        1 MOL      0.146997
     30 C30        -2.3620   -8.3290   -1.7090 c3        1 MOL     -0.128103
     31 C31        -1.7940   -7.3230   -2.7020 c3        1 MOL     -0.074103
     32 N1          5.9830   -3.8780   -0.3110 n         1 MOL     -0.545803
     33 N2          3.2200   -2.0290    1.5820 n4        1 MOL     -0.684903
     34 O1          6.7430   -2.6390    1.4950 o         1 MOL     -0.624103
     35 O2          2.6500   -1.5240   -1.9210 o         1 MOL     -0.555803
     36 O3         -0.5560   -9.9240   -1.8730 o         1 MOL     -0.543603
     37 O4          0.9000   -4.6880   -2.5390 os        1 MOL     -0.301803
     38 O5         -1.3100   -5.7170   -1.0020 os        1 MOL     -0.303103
     39 O6          3.4300   -3.6550   -1.7940 oh        1 MOL     -0.579703
     40 O7         -1.2170   -9.2270    0.1850 oh        1 MOL     -0.604603
     41 H1          2.0270   -8.3600    0.7310 ha        1 MOL      0.139797
     42 H2          6.3530    0.2920   -3.1480 ha        1 MOL      0.160097
     43 H3          2.7160   -6.8930    2.6100 ha        1 MOL      0.136097
     44 H4          3.3240   -8.3580   -1.3840 ha        1 MOL      0.141697
     45 H5          4.6880    1.7970   -2.0920 ha        1 MOL      0.159397
     46 H6          7.0580   -1.7790   -2.0030 ha        1 MOL      0.158997
     47 H7          4.6940   -5.4270    2.3790 ha        1 MOL      0.137297
     48 H8          5.3030   -6.8960   -1.6250 ha        1 MOL      0.140497
     49 H9          3.7240    1.2280    0.1120 ha        1 MOL      0.143097
     50 H10        -0.2560   -2.6990    2.1740 ha        1 MOL      0.150197
     51 H11        -1.6530   -4.5140    1.2630 ha        1 MOL      0.177497
     52 H12         1.0700   -1.3640    5.4040 ha        1 MOL      0.147397
     53 H13         0.7760   -2.9100    4.4140 ha        1 MOL      0.129597
     54 H14         3.1380   -0.9610    4.2390 ha        1 MOL      0.143897
     55 H15         0.2480   -5.9860   -3.9800 h1        1 MOL      0.107897
     56 H16        -0.9330   -4.7610   -3.4780 h1        1 MOL      0.078697
     57 H17         0.0850   -7.0680   -1.6860 h1        1 MOL      0.077797
     58 H18         6.8180   -5.0270    1.1880 h1        1 MOL      0.089397
     59 H19         7.0720   -5.6240   -0.4530 h1        1 MOL      0.071797
     60 H20         5.0180   -1.2600    2.3540 hx        1 MOL      0.140197
     61 H21         3.7510   -0.0560    2.0780 hx        1 MOL      0.101697
     62 H22         2.1350   -0.7800    0.3150 hx        1 MOL      0.117297
     63 H23         1.3990   -1.0660    1.8980 hx        1 MOL      0.106997
     64 H24         2.3910   -3.5670    2.7420 hx        1 MOL      0.101097
     65 H25         4.0660   -3.1340    3.1480 hx        1 MOL      0.116897
     66 H26        -2.8930   -7.8310   -0.8910 hc        1 MOL      0.089397
     67 H27        -3.1060   -8.9640   -2.2060 hc        1 MOL      0.097197
     68 H28        -2.6090   -6.6840   -3.0620 hc        1 MOL      0.080397
     69 H29        -1.3810   -7.8410   -3.5750 hc        1 MOL      0.082797
     70 H30         5.4910   -3.8580   -1.1990 hn        1 MOL      0.324197
     71 H31         3.5870   -2.7310    0.9190 hn        1 MOL      0.461897
     72 H32         4.2000   -3.3250   -2.3050 ho        1 MOL      0.455597
     73 H33        -0.5220   -9.7980    0.5770 ho        1 MOL      0.451197
@<TRIPOS>BOND
     1    1    3 ar  
     2    1    4 ar  
     3    2    5 ar  
     4    2    6 ar  
     5    3    7 ar  
     6    4    8 ar  
     7    5    9 ar  
     8    6   12 ar  
     9    7   14 ar  
    10    8   14 ar  
    11    9   15 ar  
    12   10   11 ar  
    13   10   16 ar  
    14   11   17 ar  
    15   12   15 ar  
    16   12   21 1   
    17   13   16 ar  
    18   13   18 ar  
    19   13   22 1   
    20   14   26 1   
    21   15   27 1   
    22   16   28 1   
    23   17   18 ar  
    24   17   38 1   
    25   18   37 1   
    26   19   20 2   
    27   20   29 1   
    28   21   32 1   
    29   21   34 2   
    30   22   35 2   
    31   22   39 1   
    32   23   30 1   
    33   23   36 2   
    34   23   40 1   
    35   24   25 1   
    36   24   37 1   
    37   25   31 1   
    38   25   38 1   
    39   26   32 1   
    40   27   33 1   
    41   28   33 1   
    42   29   33 1   
    43   30   31 1   
    44    1   41 1   
    45    2   42 1   
    46    3   43 1   
    47    4   44 1   
    48    5   45 1   
    49    6   46 1   
    50    7   47 1   
    51    8   48 1   
    52    9   49 1   
    53   10   50 1   
    54   11   51 1   
    55   19   52 1   
    56   19   53 1   
    57   20   54 1   
    58   24   55 1   
    59   24   56 1   
    60   25   57 1   
    61   26   58 1   
    62   26   59 1   
    63   27   60 1   
    64   27   61 1   
    65   28   62 1   
    66   28   63 1   
    67   29   64 1   
    68   29   65 1   
    69   30   66 1   
    70   30   67 1   
    71   31   68 1   
    72   31   69 1   
    73   32   70 1   
    74   33   71 1   
    75   39   72 1   
    76   40   73 1   
@<TRIPOS>SUBSTRUCTURE
     1 MOL         1 TEMP              0 ****  ****    0 ROOT
