@<TRIPOS>MOLECULE
AVX-17285_0
   30    32     1     0     0
SMALL
No Charge or Current Charge


@<TRIPOS>ATOM
      1 C1         -0.1950   -1.2190   -1.7730 ca        1 MOL     -0.160600
      2 C2          0.0490   -1.0080   -0.4030 ca        1 MOL     -0.107500
      3 C3          0.5480   -4.1850   -6.1990 ca        1 MOL     -0.165400
      4 C4         -0.1400   -2.5030   -2.3250 ca        1 MOL     -0.058800
      5 C5          0.8630   -4.7360   -4.9570 ca        1 MOL     -0.139300
      6 C6         -0.7860   -4.0260   -6.5730 ca        1 MOL     -0.098800
      7 C7          0.3520   -2.0780    0.4420 ca        1 MOL     -0.182900
      8 C8         -1.4910   -4.9680   -4.4630 ca        1 MOL     -0.086600
      9 C9          0.1600   -3.5570   -1.4830 ca        1 MOL     -0.087000
     10 C10        -0.1560   -5.1280   -4.0890 ca        1 MOL     -0.139900
     11 C11        -1.8060   -4.4180   -5.7050 ca        1 MOL     -0.127200
     12 C12         0.4010   -3.3370   -0.1230 ca        1 MOL      0.051600
     13 C13         0.3030   -4.9950   -1.6830 cc        1 MOL     -0.147300
     14 C14         0.6440   -5.6210   -0.3620 c         1 MOL      0.706000
     15 C15         0.1690   -5.6940   -2.8120 cf        1 MOL      0.043500
     16 C16        -3.2140   -4.2500   -6.1000 c         1 MOL      0.908300
     17 N1          0.6830   -4.5430    0.5280 n         1 MOL     -0.487900
     18 O1         -4.1350   -4.6200   -5.2800 o         1 MOL     -0.824700
     19 O2          0.8370   -6.8020   -0.1430 o         1 MOL     -0.628500
     20 O3         -3.4780   -3.7390   -7.2520 o         1 MOL     -0.826100
     21 H1         -0.4280   -0.3690   -2.4100 ha        1 MOL      0.136300
     22 H2          0.0010    0.0000   -0.0010 ha        1 MOL      0.117700
     23 H3          1.3420   -3.8810   -6.8750 ha        1 MOL      0.109900
     24 H4         -0.3290   -2.6550   -3.3820 ha        1 MOL      0.169900
     25 H5          1.9080   -4.8530   -4.6790 ha        1 MOL      0.111700
     26 H6         -1.0210   -3.5960   -7.5430 ha        1 MOL      0.154100
     27 H7          0.5400   -1.9160    1.4970 ha        1 MOL      0.126200
     28 H8         -2.2890   -5.2720   -3.7890 ha        1 MOL      0.160400
     29 H9          0.2880   -6.7760   -2.7530 ha        1 MOL      0.143800
     30 H10         0.8880   -4.6240    1.5170 hn        1 MOL      0.329100
@<TRIPOS>BOND
     1    1    2 ar  
     2    1    4 ar  
     3    2    7 ar  
     4    3    5 ar  
     5    3    6 ar  
     6    4    9 ar  
     7    5   10 ar  
     8    6   11 ar  
     9    7   12 ar  
    10    8   10 ar  
    11    8   11 ar  
    12    9   12 ar  
    13    9   13 1   
    14   10   15 1   
    15   11   16 1   
    16   12   17 1   
    17   13   14 1   
    18   13   15 2   
    19   14   17 1   
    20   14   19 2   
    21   16   18 1   
    22   16   20 1   
    23    1   21 1   
    24    2   22 1   
    25    3   23 1   
    26    4   24 1   
    27    5   25 1   
    28    6   26 1   
    29    7   27 1   
    30    8   28 1   
    31   15   29 1   
    32   17   30 1   
@<TRIPOS>SUBSTRUCTURE
     1 MOL         1 TEMP              0 ****  ****    0 ROOT
