@<TRIPOS>MOLECULE
AVX101122_0
   61    63     0     0     0
SMALL
NO_CHARGES

@<TRIPOS>ATOM
      1 C1          2.7419    1.7219    5.9787 C.ar      1 MOL         0.0000
      2 C2          2.1550    2.6597    5.1292 C.ar      1 MOL         0.0000
      3 C3          5.6527    2.2020   -2.2812 C.ar      1 MOL         0.0000
      4 C4          3.0104    0.4336    5.5161 C.ar      1 MOL         0.0000
      5 C5          1.8365    2.3093    3.8172 C.ar      1 MOL         0.0000
      6 C6          4.5104    2.2092   -1.4807 C.ar      1 MOL         0.0000
      7 C7          5.3349   -2.5682    0.9368 C.ar      1 MOL         0.0000
      8 C8          7.1194   -3.0986    2.4767 C.ar      1 MOL         0.0000
      9 C9          6.8998    1.9387   -1.7146 C.ar      1 MOL         0.0000
     10 C10         6.2597   -2.4766   -0.1033 C.ar      1 MOL         0.0000
     11 C11         8.0442   -3.0072    1.4366 C.ar      1 MOL         0.0000
     12 C12         2.6919    0.0832    4.2041 C.ar      1 MOL         0.0000
     13 C13         5.8625    1.6899    0.4531 C.ar      1 MOL         0.0000
     14 C14         5.7647   -2.8791    2.2269 C.ar      1 MOL         0.0000
     15 C15         2.1050    1.0210    3.3546 C.ar      1 MOL         0.0000
     16 C16         4.6153    1.9531   -0.1135 C.ar      1 MOL         0.0000
     17 C17         7.6143   -2.6962    0.1465 C.ar      1 MOL         0.0000
     18 C18         7.0047    1.6826   -0.3475 C.ar      1 MOL         0.0000
     19 C19         2.9824   -1.2690    3.7470 C.2       1 MOL         0.0000
     20 C20         5.9785    1.4236    1.8827 C.2       1 MOL         0.0000
     21 C21         2.6498   -0.1618   -0.1287 C.3       1 MOL         0.0000
     22 C22         8.0081   -2.2877   -2.1630 C.3       1 MOL         0.0000
     23 C23         9.3429    1.4435   -0.7102 C.3       1 MOL         0.0000
     24 C24         4.7694   -2.9783    3.3465 C.3       1 MOL         0.0000
     25 C25         1.7513    0.6707    1.9381 C.3       1 MOL         0.0000
     26 C26         3.3683    1.9670    0.7224 C.3       1 MOL         0.0000
     27 N1          4.3196   -1.6774    3.7871 N.am      1 MOL         0.0000
     28 N2          2.9318    0.6168    1.0767 N.3       1 MOL         0.0000
     29 O1          2.0702   -2.0001    3.3257 O.2       1 MOL         0.0000
     30 O2          5.6493    2.2017    2.7805 O.2       1 MOL         0.0000
     31 O3          6.5003    0.1943    2.1379 O.3       1 MOL         0.0000
     32 O4          8.5164   -2.6081   -0.8689 O.3       1 MOL         0.0000
     33 O5          8.2335    1.4297    0.1855 O.3       1 MOL         0.0000
     34 H1          2.9903    1.9944    7.0005 H         1 MOL         0.0000
     35 H2          1.9459    3.6626    5.4901 H         1 MOL         0.0000
     36 H3          5.5708    2.4015   -3.3456 H         1 MOL         0.0000
     37 H4          3.4671   -0.2884    6.1882 H         1 MOL         0.0000
     38 H5          1.3799    3.0477    3.1634 H         1 MOL         0.0000
     39 H6          3.5434    2.4156   -1.9317 H         1 MOL         0.0000
     40 H7          4.2815   -2.3955    0.7331 H         1 MOL         0.0000
     41 H8          7.4634   -3.3414    3.4789 H         1 MOL         0.0000
     42 H9          7.7860    1.9361   -2.3434 H         1 MOL         0.0000
     43 H10         5.9186   -2.2343   -1.1063 H         1 MOL         0.0000
     44 H11         9.0978   -3.1796    1.6375 H         1 MOL         0.0000
     45 H12         3.5356   -0.1983   -0.7682 H         1 MOL         0.0000
     46 H13         1.8294    0.2939   -0.6897 H         1 MOL         0.0000
     47 H14         2.3666   -1.1833    0.1388 H         1 MOL         0.0000
     48 H15         8.8322   -2.2491   -2.8796 H         1 MOL         0.0000
     49 H16         7.4976   -1.3221   -2.1262 H         1 MOL         0.0000
     50 H17         7.2992   -3.0611   -2.4679 H         1 MOL         0.0000
     51 H18        10.2607    1.2275   -0.1579 H         1 MOL         0.0000
     52 H19         9.4146    2.4239   -1.1878 H         1 MOL         0.0000
     53 H20         9.1918    0.6780   -1.4750 H         1 MOL         0.0000
     54 H21         3.8898   -3.5505    3.0317 H         1 MOL         0.0000
     55 H22         5.2004   -3.4939    4.2111 H         1 MOL         0.0000
     56 H23         1.2566   -0.3057    1.8939 H         1 MOL         0.0000
     57 H24         1.0596    1.4054    1.5126 H         1 MOL         0.0000
     58 H25         3.5326    2.5230    1.6519 H         1 MOL         0.0000
     59 H26         2.5449    2.4566    0.1918 H         1 MOL         0.0000
     60 H27         5.0324   -1.0177    4.0812 H         1 MOL         0.0000
     61 H28         6.5816    0.0051    3.0971 H         1 MOL         0.0000
@<TRIPOS>BOND
     1    1    2 ar
     2    1    4 ar
     3    2    5 ar
     4    3    6 ar
     5    3    9 ar
     6    4   12 ar
     7    5   15 ar
     8    6   16 ar
     9    7   10 ar
    10    7   14 ar
    11    8   11 ar
    12    8   14 ar
    13    9   18 ar
    14   10   17 ar
    15   11   17 ar
    16   12   15 ar
    17   12   19 1
    18   13   16 ar
    19   13   18 ar
    20   13   20 1
    21   14   24 1
    22   15   25 1
    23   16   26 1
    24   17   32 1
    25   18   33 1
    26   19   27 am
    27   19   29 2
    28   20   30 2
    29   20   31 1
    30   21   28 1
    31   22   32 1
    32   23   33 1
    33   24   27 1
    34   25   28 1
    35   26   28 1
    36    1   34 1
    37    2   35 1
    38    3   36 1
    39    4   37 1
    40    5   38 1
    41    6   39 1
    42    7   40 1
    43    8   41 1
    44    9   42 1
    45   10   43 1
    46   11   44 1
    47   21   45 1
    48   21   46 1
    49   21   47 1
    50   22   48 1
    51   22   49 1
    52   22   50 1
    53   23   51 1
    54   23   52 1
    55   23   53 1
    56   24   54 1
    57   24   55 1
    58   25   56 1
    59   25   57 1
    60   26   58 1
    61   26   59 1
    62   27   60 1
    63   31   61 1
