@<TRIPOS>MOLECULE
AVX101122_0
   61    63     1     0     0
SMALL
No Charge or Current Charge


@<TRIPOS>ATOM
      1 C1          2.7420    1.7220    5.9790 ca        1 MOL     -0.134002
      2 C2          2.1550    2.6600    5.1290 ca        1 MOL     -0.115202
      3 C3          5.6530    2.2020   -2.2810 ca        1 MOL     -0.096002
      4 C4          3.0100    0.4340    5.5160 ca        1 MOL     -0.103802
      5 C5          1.8370    2.3090    3.8170 ca        1 MOL     -0.129802
      6 C6          4.5100    2.2090   -1.4810 ca        1 MOL     -0.143202
      7 C7          5.3350   -2.5680    0.9370 ca        1 MOL     -0.080502
      8 C8          7.1190   -3.0990    2.4770 ca        1 MOL     -0.079002
      9 C9          6.9000    1.9390   -1.7150 ca        1 MOL     -0.162602
     10 C10         6.2600   -2.4770   -0.1030 ca        1 MOL     -0.168302
     11 C11         8.0440   -3.0070    1.4370 ca        1 MOL     -0.196402
     12 C12         2.6920    0.0830    4.2040 ca        1 MOL     -0.122102
     13 C13         5.8620    1.6900    0.4530 ca        1 MOL     -0.117302
     14 C14         5.7650   -2.8790    2.2270 ca        1 MOL     -0.153602
     15 C15         2.1050    1.0210    3.3550 ca        1 MOL     -0.039302
     16 C16         4.6150    1.9530   -0.1140 ca        1 MOL     -0.015902
     17 C17         7.6140   -2.6960    0.1460 ca        1 MOL      0.127998
     18 C18         7.0050    1.6830   -0.3470 ca        1 MOL      0.138898
     19 C19         2.9820   -1.2690    3.7470 c         1 MOL      0.675898
     20 C20         5.9790    1.4240    1.8830 c         1 MOL      0.671198
     21 C21         2.6500   -0.1620   -0.1290 c3        1 MOL      0.151098
     22 C22         8.0080   -2.2880   -2.1630 c3        1 MOL      0.112398
     23 C23         9.3430    1.4440   -0.7100 c3        1 MOL      0.113498
     24 C24         4.7690   -2.9780    3.3460 c3        1 MOL      0.133498
     25 C25         1.7510    0.6710    1.9380 c3        1 MOL      0.198698
     26 C26         3.3680    1.9670    0.7220 c3        1 MOL      0.194298
     27 N1          4.3200   -1.6770    3.7870 n         1 MOL     -0.553202
     28 N2          2.9320    0.6170    1.0770 n3        1 MOL     -0.732702
     29 O1          2.0700   -2.0000    3.3260 o         1 MOL     -0.603602
     30 O2          5.6490    2.2020    2.7800 o         1 MOL     -0.553702
     31 O3          6.5000    0.1940    2.1380 oh        1 MOL     -0.586602
     32 O4          8.5160   -2.6080   -0.8690 os        1 MOL     -0.327302
     33 O5          8.2330    1.4300    0.1850 os        1 MOL     -0.336302
     34 H1          2.9900    1.9940    7.0000 ha        1 MOL      0.135598
     35 H2          1.9460    3.6630    5.4900 ha        1 MOL      0.134598
     36 H3          5.5710    2.4010   -3.3460 ha        1 MOL      0.138098
     37 H4          3.4670   -0.2880    6.1880 ha        1 MOL      0.142398
     38 H5          1.3800    3.0480    3.1630 ha        1 MOL      0.136598
     39 H6          3.5430    2.4160   -1.9320 ha        1 MOL      0.141798
     40 H7          4.2820   -2.3960    0.7330 ha        1 MOL      0.137598
     41 H8          7.4630   -3.3410    3.4790 ha        1 MOL      0.136798
     42 H9          7.7860    1.9360   -2.3430 ha        1 MOL      0.148998
     43 H10         5.9190   -2.2340   -1.1060 ha        1 MOL      0.146098
     44 H11         9.0980   -3.1800    1.6370 ha        1 MOL      0.139898
     45 H12         3.5360   -0.1980   -0.7680 h1        1 MOL      0.054498
     46 H13         1.8290    0.2940   -0.6900 h1        1 MOL      0.005598
     47 H14         2.3670   -1.1830    0.1390 h1        1 MOL      0.056498
     48 H15         8.8320   -2.2490   -2.8800 h1        1 MOL      0.064498
     49 H16         7.4980   -1.3220   -2.1260 h1        1 MOL      0.033398
     50 H17         7.2990   -3.0610   -2.4680 h1        1 MOL      0.034798
     51 H18        10.2610    1.2280   -0.1580 h1        1 MOL      0.068398
     52 H19         9.4150    2.4240   -1.1880 h1        1 MOL      0.037398
     53 H20         9.1920    0.6780   -1.4750 h1        1 MOL      0.031198
     54 H21         3.8900   -3.5500    3.0320 h1        1 MOL      0.069498
     55 H22         5.2000   -3.4940    4.2110 h1        1 MOL      0.062298
     56 H23         1.2570   -0.3060    1.8940 h1        1 MOL      0.083698
     57 H24         1.0600    1.4050    1.5130 h1        1 MOL      0.030598
     58 H25         3.5330    2.5230    1.6520 h1        1 MOL      0.077498
     59 H26         2.5450    2.4570    0.1920 h1        1 MOL      0.030298
     60 H27         5.0320   -1.0180    4.0810 hn        1 MOL      0.312298
     61 H28         6.5820    0.0050    3.0970 ho        1 MOL      0.441998
@<TRIPOS>BOND
     1    1    2 ar  
     2    1    4 ar  
     3    2    5 ar  
     4    3    6 ar  
     5    3    9 ar  
     6    4   12 ar  
     7    5   15 ar  
     8    6   16 ar  
     9    7   10 ar  
    10    7   14 ar  
    11    8   11 ar  
    12    8   14 ar  
    13    9   18 ar  
    14   10   17 ar  
    15   11   17 ar  
    16   12   15 ar  
    17   12   19 1   
    18   13   16 ar  
    19   13   18 ar  
    20   13   20 1   
    21   14   24 1   
    22   15   25 1   
    23   16   26 1   
    24   17   32 1   
    25   18   33 1   
    26   19   27 1   
    27   19   29 2   
    28   20   30 2   
    29   20   31 1   
    30   21   28 1   
    31   22   32 1   
    32   23   33 1   
    33   24   27 1   
    34   25   28 1   
    35   26   28 1   
    36    1   34 1   
    37    2   35 1   
    38    3   36 1   
    39    4   37 1   
    40    5   38 1   
    41    6   39 1   
    42    7   40 1   
    43    8   41 1   
    44    9   42 1   
    45   10   43 1   
    46   11   44 1   
    47   21   45 1   
    48   21   46 1   
    49   21   47 1   
    50   22   48 1   
    51   22   49 1   
    52   22   50 1   
    53   23   51 1   
    54   23   52 1   
    55   23   53 1   
    56   24   54 1   
    57   24   55 1   
    58   25   56 1   
    59   25   57 1   
    60   26   58 1   
    61   26   59 1   
    62   27   60 1   
    63   31   61 1   
@<TRIPOS>SUBSTRUCTURE
     1 MOL         1 TEMP              0 ****  ****    0 ROOT
