@<TRIPOS>MOLECULE
AVX38780_0
   75    78     1     0     0
SMALL
No Charge or Current Charge


@<TRIPOS>ATOM
      1 C1          5.9890   -0.0540   -2.1780 ca        1 MOL     -0.104996
      2 C2          6.3500   -1.2100   -1.4880 ca        1 MOL     -0.101996
      3 C3          5.0560    0.8250   -1.6270 ca        1 MOL     -0.096596
      4 C4          5.7800   -1.4880   -0.2450 ca        1 MOL     -0.093096
      5 C5         -0.1340   -2.7320    1.8470 ca        1 MOL     -0.123596
      6 C6         -0.6740    1.1100    0.0530 ca        1 MOL     -0.083096
      7 C7          0.2280    2.1580    2.0330 ca        1 MOL     -0.078196
      8 C8         -1.0880   -3.7450    1.7460 ca        1 MOL     -0.147696
      9 C9         -1.6480    0.4820    0.8290 ca        1 MOL     -0.160596
     10 C10        -0.7460    1.5310    2.8090 ca        1 MOL     -0.209996
     11 C11         4.4860    0.5480   -0.3840 ca        1 MOL     -0.098696
     12 C12         0.9780   -3.5730   -0.1280 ca        1 MOL     -0.085296
     13 C13         0.2640    1.9480    0.6550 ca        1 MOL     -0.165696
     14 C14         4.8480   -0.6090    0.3060 ca        1 MOL     -0.093496
     15 C15         0.9000   -2.6490    0.9140 ca        1 MOL     -0.182796
     16 C16        -1.0020   -4.6780    0.7120 ca        1 MOL      0.098304
     17 C17         0.0170   -4.5780   -0.2370 ca        1 MOL      0.071804
     18 C18        -1.6850    0.6930    2.2070 ca        1 MOL      0.132404
     19 C19         3.2000   -1.5820    5.1210 c2        1 MOL     -0.174996
     20 C20         2.5510   -1.8410    3.9810 c2        1 MOL     -0.209896
     21 C21         3.5150    1.4820    0.1680 c         1 MOL      0.657104
     22 C22         2.0700   -3.4760   -1.1190 c         1 MOL      0.921304
     23 C23        -4.4980   -9.1760    0.8240 c         1 MOL      0.912504
     24 C24        -1.0650   -6.1930   -1.5070 c3        1 MOL      0.086404
     25 C25        -1.5830   -6.7440   -0.1850 c3        1 MOL      0.101604
     26 C26        -2.6160    0.3400    4.3670 c3        1 MOL      0.111304
     27 C27         1.3130    2.6240   -0.1800 c3        1 MOL      0.135804
     28 C28         4.2500   -0.9320    1.6440 c3        1 MOL      0.157704
     29 C29         1.9100   -1.5570    1.0570 c3        1 MOL      0.186304
     30 C30         3.0770   -2.7330    2.9060 c3        1 MOL      0.143404
     31 C31        -3.2850   -8.2420    0.9050 c3        1 MOL     -0.200296
     32 C32        -2.8130   -7.6160   -0.3930 c3        1 MOL     -0.053096
     33 N1          2.3570    1.7090   -0.5820 n         1 MOL     -0.538896
     34 N2          3.2200   -2.0310    1.5800 n4        1 MOL     -0.715596
     35 O1          1.8810   -2.7660   -2.1730 o         1 MOL     -0.745196
     36 O2         -4.8850   -9.6920    1.9080 o         1 MOL     -0.845496
     37 O3          3.7370    2.0540    1.2490 o         1 MOL     -0.633596
     38 O4          3.1660   -4.1070   -0.8880 o         1 MOL     -0.882996
     39 O5         -4.9760   -9.3040   -0.3410 o         1 MOL     -0.850996
     40 O6          0.1350   -5.4430   -1.2940 os        1 MOL     -0.298696
     41 O7         -1.9550   -5.6610    0.6780 os        1 MOL     -0.291596
     42 O8         -2.6360    0.0810    2.9640 os        1 MOL     -0.323696
     43 H1          6.4330    0.1630   -3.1460 ha        1 MOL      0.137804
     44 H2          7.0760   -1.8950   -1.9180 ha        1 MOL      0.140904
     45 H3          4.7820    1.7220   -2.1750 ha        1 MOL      0.144504
     46 H4          6.0690   -2.3920    0.2850 ha        1 MOL      0.140404
     47 H5         -0.2040   -2.0130    2.6600 ha        1 MOL      0.116304
     48 H6         -0.6530    0.9400   -1.0210 ha        1 MOL      0.134604
     49 H7          0.9550    2.8100    2.5110 ha        1 MOL      0.144504
     50 H8         -1.8830   -3.8090    2.4830 ha        1 MOL      0.159404
     51 H9         -2.3770   -0.1700    0.3530 ha        1 MOL      0.155804
     52 H10        -0.7690    1.6990    3.8820 ha        1 MOL      0.140204
     53 H11         2.7630   -0.9270    5.8670 ha        1 MOL      0.123604
     54 H12         4.1720   -2.0150    5.3320 ha        1 MOL      0.122704
     55 H13         1.5770   -1.3860    3.8220 ha        1 MOL      0.140404
     56 H14        -0.8230   -7.0070   -2.1990 h1        1 MOL      0.083504
     57 H15        -1.8000   -5.5390   -1.9940 h1        1 MOL      0.056104
     58 H16        -0.8050   -7.3300    0.3230 h1        1 MOL      0.068304
     59 H17        -3.4270   -0.2090    4.8510 h1        1 MOL      0.073304
     60 H18        -2.7320    1.4130    4.5420 h1        1 MOL      0.034604
     61 H19        -1.6590    0.0080    4.7760 h1        1 MOL      0.034804
     62 H20         0.8690    3.0490   -1.0870 h1        1 MOL      0.060304
     63 H21         1.7820    3.4470    0.3690 h1        1 MOL      0.063904
     64 H22         5.0180   -1.2620    2.3520 hx        1 MOL      0.095304
     65 H23         3.7510   -0.0580    2.0760 hx        1 MOL      0.091804
     66 H24         2.1180   -1.0740    0.0930 hx        1 MOL      0.110804
     67 H25         1.5640   -0.7770    1.7480 hx        1 MOL      0.068204
     68 H26         2.3910   -3.5700    2.7400 hx        1 MOL      0.112004
     69 H27         4.0660   -3.1360    3.1460 hx        1 MOL      0.092704
     70 H28        -2.4600   -8.8480    1.3020 hc        1 MOL      0.023004
     71 H29        -3.4950   -7.4620    1.6470 hc        1 MOL      0.030204
     72 H30        -3.5880   -7.0060   -0.8540 hc        1 MOL      0.067804
     73 H31        -2.5370   -8.3970   -1.1000 hc        1 MOL      0.041304
     74 H32         2.2560    1.2630   -1.4880 hn        1 MOL      0.340904
     75 H33         3.5870   -2.7330    0.9170 hn        1 MOL      0.524904
@<TRIPOS>BOND
     1    1    2 ar  
     2    1    3 ar  
     3    2    4 ar  
     4    3   11 ar  
     5    4   14 ar  
     6    5    8 ar  
     7    5   15 ar  
     8    6    9 ar  
     9    6   13 ar  
    10    7   10 ar  
    11    7   13 ar  
    12    8   16 ar  
    13    9   18 ar  
    14   10   18 ar  
    15   11   14 ar  
    16   11   21 1   
    17   12   15 ar  
    18   12   17 ar  
    19   12   22 1   
    20   13   27 1   
    21   14   28 1   
    22   15   29 1   
    23   16   17 ar  
    24   16   41 1   
    25   17   40 1   
    26   18   42 1   
    27   19   20 2   
    28   20   30 1   
    29   21   33 1   
    30   21   37 2   
    31   22   35 1   
    32   22   38 1   
    33   23   31 1   
    34   23   36 1   
    35   23   39 1   
    36   24   25 1   
    37   24   40 1   
    38   25   32 1   
    39   25   41 1   
    40   26   42 1   
    41   27   33 1   
    42   28   34 1   
    43   29   34 1   
    44   30   34 1   
    45   31   32 1   
    46    1   43 1   
    47    2   44 1   
    48    3   45 1   
    49    4   46 1   
    50    5   47 1   
    51    6   48 1   
    52    7   49 1   
    53    8   50 1   
    54    9   51 1   
    55   10   52 1   
    56   19   53 1   
    57   19   54 1   
    58   20   55 1   
    59   24   56 1   
    60   24   57 1   
    61   25   58 1   
    62   26   59 1   
    63   26   60 1   
    64   26   61 1   
    65   27   62 1   
    66   27   63 1   
    67   28   64 1   
    68   28   65 1   
    69   29   66 1   
    70   29   67 1   
    71   30   68 1   
    72   30   69 1   
    73   31   70 1   
    74   31   71 1   
    75   32   72 1   
    76   32   73 1   
    77   33   74 1   
    78   34   75 1   
@<TRIPOS>SUBSTRUCTURE
     1 MOL         1 TEMP              0 ****  ****    0 ROOT
