@<TRIPOS>MOLECULE
AVX38748_0
   67    70     1     0     0
SMALL
No Charge or Current Charge


@<TRIPOS>ATOM
      1 C1          2.0070    1.7310   -0.6800 ca        1 MOL     -0.150103
      2 C2          2.2400    0.4800   -1.2720 ca        1 MOL     -0.133303
      3 C3          0.8190    1.9810    0.0080 ca        1 MOL     -0.134403
      4 C4          1.2890   -0.5390   -1.1830 ca        1 MOL     -0.096503
      5 C5         -2.8130   -3.8480    0.6770 ca        1 MOL     -0.156103
      6 C6         -3.9240   -4.6610    0.4520 ca        1 MOL     -0.162403
      7 C7         -2.1980   -4.0320   -1.6540 ca        1 MOL     -0.079403
      8 C8         -0.1130    0.9600    0.1020 ca        1 MOL     -0.109303
      9 C9          0.1170   -0.2910   -0.4870 ca        1 MOL     -0.068203
     10 C10        -1.9480   -3.5390   -0.3740 ca        1 MOL     -0.108203
     11 C11        -4.1670   -5.1660   -0.8250 ca        1 MOL      0.057497
     12 C12        -3.3170   -4.8340   -1.8830 ca        1 MOL      0.073297
     13 C13        -1.2860   -3.6950   -2.7660 c         1 MOL      0.920697
     14 C14        -2.0870   -0.9670    3.3500 c         1 MOL      0.655797
     15 C15        -8.2920   -9.0450   -1.4670 c         1 MOL      0.907697
     16 C16        -1.4590    1.0070    0.7600 c3        1 MOL     -0.053603
     17 C17        -4.8470   -5.7750   -3.3530 c3        1 MOL      0.090597
     18 C18        -1.0740   -1.1910   -0.2820 c3        1 MOL     -0.037303
     19 C19        -1.7710   -0.4970    0.9210 c3        1 MOL      0.104097
     20 C20        -5.2230   -6.7090   -2.2110 c3        1 MOL      0.099097
     21 C21        -0.7530   -2.6670   -0.0950 c3        1 MOL     -0.013503
     22 C22        -1.3420   -1.5500    4.5400 c3        1 MOL     -0.165703
     23 C23        -6.9440   -8.3250   -1.3410 c3        1 MOL     -0.185003
     24 C24        -6.5970   -7.3250   -2.4270 c3        1 MOL     -0.055403
     25 C25        -2.1600   -1.5680    5.8300 c3        1 MOL     -0.072003
     26 C26        -1.4070   -2.2280    6.9890 c3        1 MOL     -0.117003
     27 C27        -2.2380   -2.2010    8.2630 c3        1 MOL      0.106797
     28 N1         -1.3020   -0.9740    2.2080 n         1 MOL     -0.538003
     29 N2         -1.4920   -2.8890    9.3450 n4        1 MOL     -0.870203
     30 O1         -1.5260   -2.6400   -3.4600 o         1 MOL     -0.824803
     31 O2         -8.5740   -9.8740   -0.5580 o         1 MOL     -0.837503
     32 O3         -0.2860   -4.4700   -2.9970 o         1 MOL     -0.824103
     33 O4         -3.2460   -0.5670    3.4130 o         1 MOL     -0.624303
     34 O5         -8.9710   -8.7010   -2.4770 o         1 MOL     -0.827103
     35 O6         -3.5210   -5.2710   -3.1650 os        1 MOL     -0.291103
     36 O7         -5.2620   -5.9750   -0.9790 os        1 MOL     -0.319403
     37 H1          2.7570    2.5130   -0.7650 ha        1 MOL      0.113897
     38 H2          3.1680    0.3060   -1.8100 ha        1 MOL      0.126697
     39 H3          0.6340    2.9520    0.4540 ha        1 MOL      0.115197
     40 H4          1.4720   -1.4970   -1.6580 ha        1 MOL      0.172697
     41 H5         -2.6260   -3.4640    1.6760 ha        1 MOL      0.089497
     42 H6         -4.5860   -4.9060    1.2780 ha        1 MOL      0.124497
     43 H7         -1.4340    1.5380    1.7160 hc        1 MOL      0.040397
     44 H8         -2.1760    1.4850    0.0830 hc        1 MOL      0.069197
     45 H9         -4.8620   -6.3080   -4.3100 h1        1 MOL      0.073997
     46 H10        -5.5350   -4.9220   -3.4280 h1        1 MOL      0.047397
     47 H11        -1.7180   -1.0790   -1.1690 hc        1 MOL      0.132597
     48 H12        -2.8520   -0.6810    0.9100 h1        1 MOL      0.098097
     49 H13        -4.4790   -7.5110   -2.1040 h1        1 MOL      0.061897
     50 H14        -0.3990   -2.8400    0.9280 hc        1 MOL      0.003697
     51 H15         0.0750   -2.9510   -0.7550 hc        1 MOL      0.099997
     52 H16        -0.4080   -0.9950    4.6900 hc        1 MOL      0.065697
     53 H17        -1.0740   -2.5800    4.2750 hc        1 MOL      0.070497
     54 H18        -6.1770   -9.1090   -1.3530 hc        1 MOL      0.024597
     55 H19        -6.8960   -7.8440   -0.3560 hc        1 MOL      0.036297
     56 H20        -7.3260   -6.5180   -2.4840 hc        1 MOL      0.065197
     57 H21        -6.5760   -7.8250   -3.3950 hc        1 MOL      0.044097
     58 H22        -2.4540   -0.5490    6.1090 hc        1 MOL      0.069897
     59 H23        -3.0850   -2.1280    5.6460 hc        1 MOL      0.065397
     60 H24        -1.1660   -3.2660    6.7250 hc        1 MOL      0.067197
     61 H25        -0.4540   -1.7140    7.1610 hc        1 MOL      0.075997
     62 H26        -3.1870   -2.7330    8.1450 hx        1 MOL      0.106797
     63 H27        -2.4280   -1.1800    8.6080 hx        1 MOL      0.108097
     64 H28        -0.3480   -1.3140    2.2590 hn        1 MOL      0.313397
     65 H29        -1.6940   -3.8940    9.3480 hn        1 MOL      0.447097
     66 H30        -1.7480   -2.5120   10.2640 hn        1 MOL      0.457697
     67 H31        -0.4800   -2.7700    9.2260 hn        1 MOL      0.450697
@<TRIPOS>BOND
     1    1    2 ar  
     2    1    3 ar  
     3    2    4 ar  
     4    3    8 ar  
     5    4    9 ar  
     6    5    6 ar  
     7    5   10 ar  
     8    6   11 ar  
     9    7   10 ar  
    10    7   12 ar  
    11    7   13 1   
    12    8    9 ar  
    13    8   16 1   
    14    9   18 1   
    15   10   21 1   
    16   11   12 ar  
    17   11   36 1   
    18   12   35 1   
    19   13   30 1   
    20   13   32 1   
    21   14   22 1   
    22   14   28 1   
    23   14   33 2   
    24   15   23 1   
    25   15   31 1   
    26   15   34 1   
    27   16   19 1   
    28   17   20 1   
    29   17   35 1   
    30   18   19 1   
    31   18   21 1   
    32   19   28 1   
    33   20   24 1   
    34   20   36 1   
    35   22   25 1   
    36   23   24 1   
    37   25   26 1   
    38   26   27 1   
    39   27   29 1   
    40    1   37 1   
    41    2   38 1   
    42    3   39 1   
    43    4   40 1   
    44    5   41 1   
    45    6   42 1   
    46   16   43 1   
    47   16   44 1   
    48   17   45 1   
    49   17   46 1   
    50   18   47 1   
    51   19   48 1   
    52   20   49 1   
    53   21   50 1   
    54   21   51 1   
    55   22   52 1   
    56   22   53 1   
    57   23   54 1   
    58   23   55 1   
    59   24   56 1   
    60   24   57 1   
    61   25   58 1   
    62   25   59 1   
    63   26   60 1   
    64   26   61 1   
    65   27   62 1   
    66   27   63 1   
    67   28   64 1   
    68   29   65 1   
    69   29   66 1   
    70   29   67 1   
@<TRIPOS>SUBSTRUCTURE
     1 MOL         1 TEMP              0 ****  ****    0 ROOT
