@<TRIPOS>MOLECULE
AVX38786_1
   71    74     1     0     0
SMALL
No Charge or Current Charge


@<TRIPOS>ATOM
      1 C1          1.1310   -4.9550    5.1680 ca        1 MOL     -0.108493
      2 C2          0.5850   -5.0960    3.8920 ca        1 MOL     -0.107993
      3 C3          2.3770   -4.3490    5.3300 ca        1 MOL     -0.100993
      4 C4          1.2840   -4.6300    2.7790 ca        1 MOL     -0.101393
      5 C5          1.2320    0.1700    2.7130 ca        1 MOL     -0.133193
      6 C6          7.0080   -0.2750    3.7050 ca        1 MOL     -0.082293
      7 C7          4.8910    0.7280    4.2970 ca        1 MOL     -0.087993
      8 C8          0.9420    1.4880    3.0680 ca        1 MOL     -0.152493
      9 C9          7.2210    0.7310    2.7620 ca        1 MOL     -0.164793
     10 C10         5.1040    1.7340    3.3540 ca        1 MOL     -0.198393
     11 C11         3.0760   -3.8820    4.2170 ca        1 MOL     -0.118493
     12 C12         1.7190    0.8790    0.4530 ca        1 MOL     -0.066493
     13 C13         5.8430   -0.2760    4.4720 ca        1 MOL     -0.179193
     14 C14         2.5300   -4.0230    2.9410 ca        1 MOL     -0.099993
     15 C15         1.6150   -0.1340    1.4060 ca        1 MOL     -0.191293
     16 C16         1.0320    2.5000    2.1110 ca        1 MOL      0.095307
     17 C17         1.4410    2.1990    0.8110 ca        1 MOL      0.068307
     18 C18         6.2690    1.7350    2.5870 ca        1 MOL      0.150107
     19 C19         4.3750   -3.2530    4.4150 c         1 MOL      0.650407
     20 C20         2.1330    0.5540   -0.9270 c         1 MOL      0.915707
     21 C21        -0.8750    7.6940    3.4750 c         1 MOL      0.910907
     22 C22         1.6160    4.4740    0.3840 c3        1 MOL      0.086607
     23 C23         0.4990    4.6510    1.4040 c3        1 MOL      0.098907
     24 C24         4.3850   -1.5240    0.7700 c3        1 MOL      0.070207
     25 C25         5.4640    3.7130    1.5400 c3        1 MOL      0.106207
     26 C26         5.6140   -1.3590    5.4870 c3        1 MOL      0.139407
     27 C27         3.2600   -3.5310    1.7260 c3        1 MOL      0.147207
     28 C28         1.9100   -1.5570    1.0570 c3        1 MOL      0.185207
     29 C29        -0.7040    6.2860    2.8910 c3        1 MOL     -0.200293
     30 C30         0.4600    6.0740    1.9420 c3        1 MOL     -0.052893
     31 N1          4.4080   -2.1070    5.2160 n         1 MOL     -0.555493
     32 N2          3.2200   -2.0310    1.5800 n4        1 MOL     -0.690293
     33 O1          3.3850    0.5780   -1.2140 o         1 MOL     -0.810093
     34 O2         -1.8450    7.8610    4.2640 o         1 MOL     -0.845393
     35 O3          5.3890   -3.7190    3.8690 o         1 MOL     -0.606493
     36 O4          1.2250    0.2600   -1.7880 o         1 MOL     -0.809793
     37 O5          0.0010    8.5230    3.0940 o         1 MOL     -0.851593
     38 O6          1.5810    3.1530   -0.1630 os        1 MOL     -0.291793
     39 O7          0.7140    3.7700    2.5150 os        1 MOL     -0.305093
     40 O8          6.4780    2.7170    1.6680 os        1 MOL     -0.320993
     41 H1          0.5880   -5.3180    6.0350 ha        1 MOL      0.144107
     42 H2         -0.3850   -5.5690    3.7670 ha        1 MOL      0.146607
     43 H3          2.7920   -4.2460    6.3300 ha        1 MOL      0.149007
     44 H4          0.8490   -4.7440    1.7900 ha        1 MOL      0.147007
     45 H5          1.1530   -0.6140    3.4620 ha        1 MOL      0.106207
     46 H6          7.7540   -1.0540    3.8340 ha        1 MOL      0.133007
     47 H7          3.9810    0.7350    4.8900 ha        1 MOL      0.129207
     48 H8          0.6340    1.7140    4.0850 ha        1 MOL      0.151707
     49 H9          8.1300    0.7260    2.1670 ha        1 MOL      0.154407
     50 H10         4.3600    2.5140    3.2230 ha        1 MOL      0.153207
     51 H11         1.4960    5.1760   -0.4480 h1        1 MOL      0.089307
     52 H12         2.6060    4.6400    0.8280 h1        1 MOL      0.048107
     53 H13        -0.4750    4.4050    0.9600 h1        1 MOL      0.072407
     54 H14         4.2860   -1.9200   -0.2420 hx        1 MOL      0.089707
     55 H15         4.3430   -0.4330    0.7700 hx        1 MOL      0.161507
     56 H16         5.3020   -1.8810    1.2430 hx        1 MOL      0.070507
     57 H17         5.7560    4.4350    0.7730 h1        1 MOL      0.077307
     58 H18         5.3270    4.2190    2.4990 h1        1 MOL      0.036307
     59 H19         4.5280    3.2320    1.2470 h1        1 MOL      0.052507
     60 H20         6.4530   -2.0630    5.4970 h1        1 MOL      0.069607
     61 H21         5.5280   -0.9400    6.4950 h1        1 MOL      0.059207
     62 H22         4.3170   -3.8160    1.7580 hx        1 MOL      0.110107
     63 H23         2.8290   -3.9480    0.8100 hx        1 MOL      0.098307
     64 H24         1.1500   -2.2360    1.4620 hx        1 MOL      0.081207
     65 H25         1.9380   -1.7060   -0.0300 hx        1 MOL      0.119207
     66 H26        -1.6270    6.0700    2.3400 hc        1 MOL      0.024407
     67 H27        -0.6490    5.5690    3.7200 hc        1 MOL      0.033107
     68 H28         1.4160    6.2840    2.4190 hc        1 MOL      0.063307
     69 H29         0.3610    6.7390    1.0840 hc        1 MOL      0.050707
     70 H30         3.5400   -1.7340    5.5860 hn        1 MOL      0.323307
     71 H31         3.3380   -1.6430    2.5300 hn        1 MOL      0.464607
@<TRIPOS>BOND
     1    1    2 ar  
     2    1    3 ar  
     3    2    4 ar  
     4    3   11 ar  
     5    4   14 ar  
     6    5    8 ar  
     7    5   15 ar  
     8    6    9 ar  
     9    6   13 ar  
    10    7   10 ar  
    11    7   13 ar  
    12    8   16 ar  
    13    9   18 ar  
    14   10   18 ar  
    15   11   14 ar  
    16   11   19 1   
    17   12   15 ar  
    18   12   17 ar  
    19   12   20 1   
    20   13   26 1   
    21   14   27 1   
    22   15   28 1   
    23   16   17 ar  
    24   16   39 1   
    25   17   38 1   
    26   18   40 1   
    27   19   31 1   
    28   19   35 2   
    29   20   33 1   
    30   20   36 1   
    31   21   29 1   
    32   21   34 1   
    33   21   37 1   
    34   22   23 1   
    35   22   38 1   
    36   23   30 1   
    37   23   39 1   
    38   24   32 1   
    39   25   40 1   
    40   26   31 1   
    41   27   32 1   
    42   28   32 1   
    43   29   30 1   
    44    1   41 1   
    45    2   42 1   
    46    3   43 1   
    47    4   44 1   
    48    5   45 1   
    49    6   46 1   
    50    7   47 1   
    51    8   48 1   
    52    9   49 1   
    53   10   50 1   
    54   22   51 1   
    55   22   52 1   
    56   23   53 1   
    57   24   54 1   
    58   24   55 1   
    59   24   56 1   
    60   25   57 1   
    61   25   58 1   
    62   25   59 1   
    63   26   60 1   
    64   26   61 1   
    65   27   62 1   
    66   27   63 1   
    67   28   64 1   
    68   28   65 1   
    69   29   66 1   
    70   29   67 1   
    71   30   68 1   
    72   30   69 1   
    73   31   70 1   
    74   32   71 1   
@<TRIPOS>SUBSTRUCTURE
     1 MOL         1 TEMP              0 ****  ****    0 ROOT
