@<TRIPOS>MOLECULE
pC2-A03_0
   30    32     1     0     0
SMALL
No Charge or Current Charge


@<TRIPOS>ATOM
      1 C1          2.8850   -0.4600   -3.1210 ca        1 MOL     -0.149993
      2 C2          3.5380    1.3920   -1.7130 ca        1 MOL     -0.134293
      3 C3          4.0170   -0.2590   -3.9100 ca        1 MOL     -0.090693
      4 C4          4.6700    1.5930   -2.5020 ca        1 MOL     -0.088693
      5 C5          2.6450    0.3650   -2.0220 ca        1 MOL      0.090007
      6 C6          4.9100    0.7670   -3.6010 ca        1 MOL     -0.038993
      7 C7          0.5080   -0.8130   -1.3880 cc        1 MOL     -0.120693
      8 C8         -0.4320   -0.7040   -0.4410 cd        1 MOL     -0.053993
      9 C9          1.1190    0.9290   -0.0420 c         1 MOL      0.791507
     10 C10        -1.6620   -1.5130   -0.2260 c3        1 MOL     -0.014193
     11 C11        -2.1960   -1.3860    1.2040 c3        1 MOL     -0.079693
     12 C12        -2.2280    0.0790    1.6390 c3        1 MOL     -0.091793
     13 C13        -0.8260    0.6800    1.5980 c3        1 MOL      0.121207
     14 N1          1.4860    0.1590   -1.2130 n         1 MOL     -0.285993
     15 N2         -0.1040    0.3400    0.3900 n         1 MOL     -0.366393
     16 O1          1.6910    1.8630    0.5010 o         1 MOL     -0.637793
     17 Br1         6.4440    1.0400   -4.6710 br        1 MOL     -0.085593
     18 H1          2.1960   -1.2620   -3.3710 ha        1 MOL      0.143007
     19 H2          3.3610    2.0410   -0.8590 ha        1 MOL      0.164407
     20 H3          4.1890   -0.9100   -4.7630 ha        1 MOL      0.148507
     21 H4          5.3560    2.3970   -2.2480 ha        1 MOL      0.150807
     22 H5          0.5670   -1.5210   -2.2000 h4        1 MOL      0.182407
     23 H6         -2.4340   -1.1620   -0.9210 hc        1 MOL      0.058907
     24 H7         -1.4760   -2.5690   -0.4550 hc        1 MOL      0.059907
     25 H8         -3.2030   -1.8150    1.2590 hc        1 MOL      0.050707
     26 H9         -1.5630   -1.9610    1.8910 hc        1 MOL      0.050707
     27 H10        -2.8890    0.6410    0.9680 hc        1 MOL      0.055007
     28 H11        -2.6420    0.1680    2.6500 hc        1 MOL      0.057407
     29 H12        -0.8610    1.7710    1.6930 h1        1 MOL      0.068707
     30 H13        -0.2290    0.3080    2.4390 h1        1 MOL      0.045607
@<TRIPOS>BOND
     1    1    3 ar  
     2    1    5 ar  
     3    2    4 ar  
     4    2    5 ar  
     5    3    6 ar  
     6    4    6 ar  
     7    5   14 1   
     8    6   17 1   
     9    7    8 2   
    10    7   14 1   
    11    8   10 1   
    12    8   15 1   
    13    9   14 1   
    14    9   15 1   
    15    9   16 2   
    16   10   11 1   
    17   11   12 1   
    18   12   13 1   
    19   13   15 1   
    20    1   18 1   
    21    2   19 1   
    22    3   20 1   
    23    4   21 1   
    24    7   22 1   
    25   10   23 1   
    26   10   24 1   
    27   11   25 1   
    28   11   26 1   
    29   12   27 1   
    30   12   28 1   
    31   13   29 1   
    32   13   30 1   
@<TRIPOS>SUBSTRUCTURE
     1 MOL         1 TEMP              0 ****  ****    0 ROOT
