@<TRIPOS>MOLECULE
AVX38784_5
   66    68     1     0     0
SMALL
No Charge or Current Charge


@<TRIPOS>ATOM
      1 C1          0.1970   -6.1680   -2.6620 ca        1 MOL     -0.111300
      2 C2         -0.9540   -5.7030   -2.0250 ca        1 MOL     -0.108300
      3 C3          0.7280   -5.4650   -3.7440 ca        1 MOL     -0.100000
      4 C4         -1.5740   -4.5360   -2.4700 ca        1 MOL     -0.103300
      5 C5         -1.1160    1.4130   -1.5350 ca        1 MOL     -0.131800
      6 C6         -0.4200    2.5450   -1.1090 ca        1 MOL     -0.146200
      7 C7          0.1070   -4.2980   -4.1890 ca        1 MOL     -0.109700
      8 C8          0.9360    0.1330   -1.5060 ca        1 MOL     -0.082900
      9 C9         -1.0440   -3.8330   -3.5520 ca        1 MOL     -0.087500
     10 C10        -0.4400    0.2070   -1.7280 ca        1 MOL     -0.178300
     11 C11         0.9530    2.4680   -0.8740 ca        1 MOL      0.100400
     12 C12         1.6340    1.2680   -1.0930 ca        1 MOL      0.077800
     13 C13         0.6820   -3.5830   -5.3210 c         1 MOL      0.661600
     14 C14         1.6490   -1.1420   -1.7200 c         1 MOL      0.917100
     15 C15         2.5160    5.2030    2.5790 c         1 MOL      0.908800
     16 C16         3.6400    2.4080   -0.8300 c3        1 MOL      0.088300
     17 C17         2.8760    3.3360    0.1060 c3        1 MOL      0.100100
     18 C18         4.5440   -4.1170   -6.2980 c3        1 MOL     -0.093200
     19 C19         2.3980   -0.8860   -6.0460 c3        1 MOL     -0.116100
     20 C20        -1.3290   -0.1770   -4.5300 c3        1 MOL      0.092700
     21 C21        -1.7320   -2.5810   -4.0110 c3        1 MOL      0.159000
     22 C22        -1.2160   -0.9880   -2.1760 c3        1 MOL      0.189200
     23 C23         2.7980    5.6310    1.1340 c3        1 MOL     -0.198400
     24 C24         3.5940    4.6670    0.2760 c3        1 MOL     -0.049200
     25 C25         4.2020   -2.6400   -6.1480 c3        1 MOL     -0.091800
     26 C26         2.6920   -2.3750   -6.2000 c3        1 MOL      0.097800
     27 N1          1.9930   -3.1190   -5.1770 n         1 MOL     -0.553500
     28 N2         -1.0010   -1.3250   -3.6100 n4        1 MOL     -0.730300
     29 O1          1.7580   -1.9590   -0.7340 o         1 MOL     -0.750200
     30 O2          1.4480    5.6330    3.0950 o         1 MOL     -0.844100
     31 O3          0.0110   -3.3900   -6.3490 o         1 MOL     -0.621800
     32 O4          2.1350   -1.3860   -2.8850 o         1 MOL     -0.820200
     33 O5          3.4000    4.4480    3.0770 o         1 MOL     -0.856400
     34 O6          2.9860    1.1380   -0.9110 os        1 MOL     -0.296500
     35 O7          1.5760    3.6070   -0.4370 os        1 MOL     -0.304600
     36 H1          0.6810   -7.0760   -2.3160 ha        1 MOL      0.140800
     37 H2         -1.3660   -6.2510   -1.1830 ha        1 MOL      0.142100
     38 H3          1.6240   -5.8380   -4.2320 ha        1 MOL      0.144000
     39 H4         -2.4700   -4.1820   -1.9670 ha        1 MOL      0.145200
     40 H5         -2.1870    1.4790   -1.7090 ha        1 MOL      0.111200
     41 H6         -0.9570    3.4770   -0.9520 ha        1 MOL      0.152700
     42 H7          3.7180    2.8230   -1.8430 h1        1 MOL      0.046400
     43 H8          4.6540    2.2310   -0.4560 h1        1 MOL      0.086400
     44 H9          2.7410    2.8680    1.0910 h1        1 MOL      0.101300
     45 H10         4.1670   -4.5220   -7.2420 hc        1 MOL      0.033800
     46 H11         5.6300   -4.2550   -6.2850 hc        1 MOL      0.037100
     47 H12         4.1190   -4.7030   -5.4770 hc        1 MOL      0.035900
     48 H13         2.7830   -0.5070   -5.0940 hc        1 MOL      0.050500
     49 H14         2.8540   -0.3050   -6.8560 hc        1 MOL      0.043500
     50 H15         1.3190   -0.6980   -6.0740 hc        1 MOL      0.043100
     51 H16        -2.3900    0.0510   -4.4140 hx        1 MOL      0.068100
     52 H17        -0.7100    0.6730   -4.2370 hx        1 MOL      0.124800
     53 H18        -1.1050   -0.4920   -5.5510 hx        1 MOL      0.072000
     54 H19        -1.8240   -2.5570   -5.1020 hx        1 MOL      0.099000
     55 H20        -2.7400   -2.5060   -3.5890 hx        1 MOL      0.085400
     56 H21        -0.9420   -1.8830   -1.6030 hx        1 MOL      0.095100
     57 H22        -2.2960   -0.8360   -2.0520 hx        1 MOL      0.079900
     58 H23         3.3670    6.5670    1.1980 hc        1 MOL      0.029500
     59 H24         1.8430    5.8690    0.6480 hc        1 MOL      0.032500
     60 H25         4.5800    4.4710    0.6930 hc        1 MOL      0.063600
     61 H26         3.7310    5.0870   -0.7210 hc        1 MOL      0.028700
     62 H27         4.6020   -2.2890   -5.1890 hc        1 MOL      0.050600
     63 H28         4.7140   -2.0760   -6.9370 hc        1 MOL      0.050600
     64 H29         2.2930   -2.7150   -7.1630 h1        1 MOL      0.075800
     65 H30         2.4730   -3.2500   -4.2930 hn        1 MOL      0.327800
     66 H31         0.0060   -1.5200   -3.7390 hn        1 MOL      0.495400
@<TRIPOS>BOND
     1    1    2 ar  
     2    1    3 ar  
     3    2    4 ar  
     4    3    7 ar  
     5    4    9 ar  
     6    5    6 ar  
     7    5   10 ar  
     8    6   11 ar  
     9    7    9 ar  
    10    7   13 1   
    11    8   10 ar  
    12    8   12 ar  
    13    8   14 1   
    14    9   21 1   
    15   10   22 1   
    16   11   12 ar  
    17   11   35 1   
    18   12   34 1   
    19   13   27 1   
    20   13   31 2   
    21   14   29 1   
    22   14   32 1   
    23   15   23 1   
    24   15   30 1   
    25   15   33 1   
    26   16   17 1   
    27   16   34 1   
    28   17   24 1   
    29   17   35 1   
    30   18   25 1   
    31   19   26 1   
    32   20   28 1   
    33   21   28 1   
    34   22   28 1   
    35   23   24 1   
    36   25   26 1   
    37   26   27 1   
    38    1   36 1   
    39    2   37 1   
    40    3   38 1   
    41    4   39 1   
    42    5   40 1   
    43    6   41 1   
    44   16   42 1   
    45   16   43 1   
    46   17   44 1   
    47   18   45 1   
    48   18   46 1   
    49   18   47 1   
    50   19   48 1   
    51   19   49 1   
    52   19   50 1   
    53   20   51 1   
    54   20   52 1   
    55   20   53 1   
    56   21   54 1   
    57   21   55 1   
    58   22   56 1   
    59   22   57 1   
    60   23   58 1   
    61   23   59 1   
    62   24   60 1   
    63   24   61 1   
    64   25   62 1   
    65   25   63 1   
    66   26   64 1   
    67   27   65 1   
    68   28   66 1   
@<TRIPOS>SUBSTRUCTURE
     1 MOL         1 TEMP              0 ****  ****    0 ROOT
