AVX-17375_3
  -OEChem-03191316093D

 39 42  0     1  0  0  0  0  0999 V2000
    2.1981    1.1327   -1.1946 C   0  0  0  0  0  0  0  0  0  0  0  0
    1.9766   -0.2525   -1.2172 C   0  0  0  0  0  0  0  0  0  0  0  0
    1.2017    2.0040   -0.7519 C   0  0  0  0  0  0  0  0  0  0  0  0
    0.7554   -0.7860   -0.7981 C   0  0  0  0  0  0  0  0  0  0  0  0
   -4.7292   -1.3780    0.1472 C   0  0  0  0  0  0  0  0  0  0  0  0
   -5.7997   -1.8694    0.8981 C   0  0  0  0  0  0  0  0  0  0  0  0
   -3.2186   -2.9948    1.1633 C   0  0  0  0  0  0  0  0  0  0  0  0
   -0.0108    1.4671   -0.3501 C   0  0  0  0  0  0  0  0  0  0  0  0
   -0.2367    0.0841   -0.3725 C   0  0  0  0  0  0  0  0  0  0  0  0
   -3.4460   -1.9375    0.2789 C   0  0  0  0  0  0  0  0  0  0  0  0
   -5.5485   -2.9138    1.7640 C   0  0  0  0  0  0  0  0  0  0  0  0
   -4.2926   -3.4615    1.8930 C   0  0  0  0  0  0  0  0  0  0  0  0
   -1.9005   -3.5922    1.3194 C   0  0  0  0  0  0  0  0  0  0  0  0
   -1.2012    2.2037    0.1869 C   0  0  0  0  0  0  0  0  0  0  0  0
   -5.6399   -4.5091    3.2231 C   0  0  0  0  0  0  0  0  0  0  0  0
   -1.6076   -0.2363    0.1627 C   0  0  1  0  0  0  0  0  0  0  0  0
   -2.3039    1.1412    0.0351 C   0  0  2  0  0  0  0  0  0  0  0  0
   -2.3252   -1.3721   -0.5528 C   0  0  0  0  0  0  0  0  0  0  0  0
   -0.8846   -2.9957    1.6888 O   0  0  0  0  0  0  0  0  0  0  0  0
   -6.4618   -3.5193    2.5710 O   0  0  0  0  0  0  0  0  0  0  0  0
   -4.2623   -4.4783    2.7970 O   0  0  0  0  0  0  0  0  0  0  0  0
   -1.8912   -4.9175    1.0105 O   0  0  0  0  0  0  0  0  0  0  0  0
   -2.9176    1.2812   -1.2467 O   0  0  0  0  0  0  0  0  0  0  0  0
    3.1566    1.5287   -1.5189 H   0  0  0  0  0  0  0  0  0  0  0  0
    2.7663   -0.9166   -1.5579 H   0  0  0  0  0  0  0  0  0  0  0  0
    1.3779    3.0740   -0.7251 H   0  0  0  0  0  0  0  0  0  0  0  0
    0.6005   -1.8599   -0.8049 H   0  0  0  0  0  0  0  0  0  0  0  0
   -4.8985   -0.5554   -0.5435 H   0  0  0  0  0  0  0  0  0  0  0  0
   -6.7907   -1.4412    0.7991 H   0  0  0  0  0  0  0  0  0  0  0  0
   -1.0295    2.4486    1.2400 H   0  0  0  0  0  0  0  0  0  0  0  0
   -1.4100    3.1082   -0.3919 H   0  0  0  0  0  0  0  0  0  0  0  0
   -5.6765   -4.3380    4.3055 H   0  0  0  0  0  0  0  0  0  0  0  0
   -6.0510   -5.5023    3.0096 H   0  0  0  0  0  0  0  0  0  0  0  0
   -1.4984   -0.4819    1.2250 H   0  0  0  0  0  0  0  0  0  0  0  0
   -3.0902    1.2690    0.7865 H   0  0  0  0  0  0  0  0  0  0  0  0
   -1.6092   -2.1657   -0.7971 H   0  0  0  0  0  0  0  0  0  0  0  0
   -2.7200   -1.0142   -1.5111 H   0  0  0  0  0  0  0  0  0  0  0  0
   -1.0071   -5.3299    1.1134 H   0  0  0  0  0  0  0  0  0  0  0  0
   -3.2887    2.1759   -1.2762 H   0  0  0  0  0  0  0  0  0  0  0  0
  1  2  1  0  0  0  0
  1  3  2  0  0  0  0
  2  4  2  0  0  0  0
  3  8  1  0  0  0  0
  4  9  1  0  0  0  0
  5  6  2  0  0  0  0
  5 10  1  0  0  0  0
  6 11  1  0  0  0  0
  7 10  2  0  0  0  0
  7 12  1  0  0  0  0
  7 13  1  0  0  0  0
  8  9  2  0  0  0  0
  8 14  1  0  0  0  0
  9 16  1  0  0  0  0
 10 18  1  0  0  0  0
 11 12  2  0  0  0  0
 11 20  1  0  0  0  0
 12 21  1  0  0  0  0
 13 19  2  0  0  0  0
 13 22  1  0  0  0  0
 14 17  1  0  0  0  0
 15 20  1  0  0  0  0
 15 21  1  0  0  0  0
 16 17  1  0  0  0  0
 16 18  1  6  0  0  0
 17 23  1  6  0  0  0
  1 24  1  0  0  0  0
  2 25  1  0  0  0  0
  3 26  1  0  0  0  0
  4 27  1  0  0  0  0
  5 28  1  0  0  0  0
  6 29  1  0  0  0  0
 14 30  1  0  0  0  0
 14 31  1  0  0  0  0
 15 32  1  0  0  0  0
 15 33  1  0  0  0  0
 16 34  1  0  0  0  0
 17 35  1  0  0  0  0
 18 36  1  0  0  0  0
 18 37  1  0  0  0  0
 22 38  1  0  0  0  0
 23 39  1  0  0  0  0
M  END
$$$$
