@<TRIPOS>MOLECULE
AVX-17375_3
   39    42     0     0     0
SMALL
NO_CHARGES

@<TRIPOS>ATOM
      1 C1          2.1981    1.1327   -1.1946 C.ar      1 MOL         0.0000
      2 C2          1.9766   -0.2525   -1.2172 C.ar      1 MOL         0.0000
      3 C3          1.2017    2.0040   -0.7519 C.ar      1 MOL         0.0000
      4 C4          0.7554   -0.7860   -0.7981 C.ar      1 MOL         0.0000
      5 C5         -4.7292   -1.3780    0.1472 C.ar      1 MOL         0.0000
      6 C6         -5.7997   -1.8694    0.8981 C.ar      1 MOL         0.0000
      7 C7         -3.2186   -2.9948    1.1633 C.ar      1 MOL         0.0000
      8 C8         -0.0108    1.4671   -0.3501 C.ar      1 MOL         0.0000
      9 C9         -0.2367    0.0841   -0.3725 C.ar      1 MOL         0.0000
     10 C10        -3.4460   -1.9375    0.2789 C.ar      1 MOL         0.0000
     11 C11        -5.5485   -2.9138    1.7640 C.ar      1 MOL         0.0000
     12 C12        -4.2926   -3.4615    1.8930 C.ar      1 MOL         0.0000
     13 C13        -1.9005   -3.5922    1.3194 C.2       1 MOL         0.0000
     14 C14        -1.2012    2.2037    0.1869 C.3       1 MOL         0.0000
     15 C15        -5.6399   -4.5091    3.2231 C.3       1 MOL         0.0000
     16 C16        -1.6076   -0.2363    0.1627 C.3       1 MOL         0.0000
     17 C17        -2.3039    1.1412    0.0351 C.3       1 MOL         0.0000
     18 C18        -2.3252   -1.3721   -0.5528 C.3       1 MOL         0.0000
     19 O1         -0.8846   -2.9957    1.6888 O.2       1 MOL         0.0000
     20 O2         -6.4618   -3.5193    2.5710 O.3       1 MOL         0.0000
     21 O3         -4.2623   -4.4783    2.7970 O.3       1 MOL         0.0000
     22 O4         -1.8912   -4.9175    1.0105 O.3       1 MOL         0.0000
     23 O5         -2.9176    1.2812   -1.2467 O.3       1 MOL         0.0000
     24 H1          3.1566    1.5287   -1.5189 H         1 MOL         0.0000
     25 H2          2.7663   -0.9166   -1.5579 H         1 MOL         0.0000
     26 H3          1.3779    3.0740   -0.7251 H         1 MOL         0.0000
     27 H4          0.6005   -1.8599   -0.8049 H         1 MOL         0.0000
     28 H5         -4.8985   -0.5554   -0.5435 H         1 MOL         0.0000
     29 H6         -6.7907   -1.4412    0.7991 H         1 MOL         0.0000
     30 H7         -1.0295    2.4486    1.2400 H         1 MOL         0.0000
     31 H8         -1.4100    3.1082   -0.3919 H         1 MOL         0.0000
     32 H9         -5.6765   -4.3380    4.3055 H         1 MOL         0.0000
     33 H10        -6.0510   -5.5023    3.0096 H         1 MOL         0.0000
     34 H11        -1.4984   -0.4819    1.2250 H         1 MOL         0.0000
     35 H12        -3.0902    1.2690    0.7865 H         1 MOL         0.0000
     36 H13        -1.6092   -2.1657   -0.7971 H         1 MOL         0.0000
     37 H14        -2.7200   -1.0142   -1.5111 H         1 MOL         0.0000
     38 H15        -1.0071   -5.3299    1.1134 H         1 MOL         0.0000
     39 H16        -3.2887    2.1759   -1.2762 H         1 MOL         0.0000
@<TRIPOS>BOND
     1    1    2 ar
     2    1    3 ar
     3    2    4 ar
     4    3    8 ar
     5    4    9 ar
     6    5    6 ar
     7    5   10 ar
     8    6   11 ar
     9    7   10 ar
    10    7   12 ar
    11    7   13 1
    12    8    9 ar
    13    8   14 1
    14    9   16 1
    15   10   18 1
    16   11   12 ar
    17   11   20 1
    18   12   21 1
    19   13   19 2
    20   13   22 1
    21   14   17 1
    22   15   20 1
    23   15   21 1
    24   16   17 1
    25   16   18 1
    26   17   23 1
    27    1   24 1
    28    2   25 1
    29    3   26 1
    30    4   27 1
    31    5   28 1
    32    6   29 1
    33   14   30 1
    34   14   31 1
    35   15   32 1
    36   15   33 1
    37   16   34 1
    38   17   35 1
    39   18   36 1
    40   18   37 1
    41   22   38 1
    42   23   39 1
