@<TRIPOS>MOLECULE
AVX38753_1
   73    76     0     0     0
SMALL
NO_CHARGES

@<TRIPOS>ATOM
      1 C1          2.8956   -7.7161    0.6270 C.ar      1 MOL         0.0000
      2 C2          5.9314    0.0404   -2.1796 C.ar      1 MOL         0.0000
      3 C3          3.2830   -6.8917    1.6834 C.ar      1 MOL         0.0000
      4 C4          3.6248   -7.7152   -0.5621 C.ar      1 MOL         0.0000
      5 C5          4.9947    0.8861   -1.5855 C.ar      1 MOL         0.0000
      6 C6          6.3263   -1.1290   -1.5298 C.ar      1 MOL         0.0000
      7 C7          4.3996   -6.0664    1.5507 C.ar      1 MOL         0.0000
      8 C8          4.7414   -6.8898   -0.6948 C.ar      1 MOL         0.0000
      9 C9          4.4530    0.5624   -0.3415 C.ar      1 MOL         0.0000
     10 C10        -0.0164   -3.1210    1.2009 C.ar      1 MOL         0.0000
     11 C11        -0.8100   -4.1459    0.6854 C.ar      1 MOL         0.0000
     12 C12         5.7846   -1.4527   -0.2859 C.ar      1 MOL         0.0000
     13 C13         1.3729   -3.1932   -0.7766 C.ar      1 MOL         0.0000
     14 C14         5.1289   -6.0654    0.3616 C.ar      1 MOL         0.0000
     15 C15         4.8479   -0.6070    0.3083 C.ar      1 MOL         0.0000
     16 C16         1.0768   -2.6492    0.4735 C.ar      1 MOL         0.0000
     17 C17        -0.5061   -4.6999   -0.5585 C.ar      1 MOL         0.0000
     18 C18         0.5714   -4.2087   -1.2988 C.ar      1 MOL         0.0000
     19 C19         1.4019   -2.0524    4.6346 C.2       1 MOL         0.0000
     20 C20         2.5503   -1.8386    3.9832 C.2       1 MOL         0.0000
     21 C21         6.2150   -2.6795    0.3710 C.2       1 MOL         0.0000
     22 C22         2.5106   -2.6877   -1.5391 C.2       1 MOL         0.0000
     23 C23        -1.2943   -9.2477   -1.1680 C.2       1 MOL         0.0000
     24 C24        -0.1626   -5.4543   -3.1153 C.3       1 MOL         0.0000
     25 C25        -0.7172   -6.4368   -2.0921 C.3       1 MOL         0.0000
     26 C26         6.3307   -5.1771    0.2180 C.3       1 MOL         0.0000
     27 C27         4.2496   -0.9303    1.6457 C.3       1 MOL         0.0000
     28 C28         1.9101   -1.5550    1.0585 C.3       1 MOL         0.0000
     29 C29         3.0772   -2.7312    2.9083 C.3       1 MOL         0.0000
     30 C30        -2.3619   -8.3295   -1.7090 C.3       1 MOL         0.0000
     31 C31        -1.7937   -7.3227   -2.7019 C.3       1 MOL         0.0000
     32 N1          5.9830   -3.8781   -0.3115 N.am      1 MOL         0.0000
     33 N2          3.2196   -2.0291    1.5819 N.4       1 MOL         0.0000
     34 O1          6.7429   -2.6391    1.4952 O.2       1 MOL         0.0000
     35 O2          2.6497   -1.5244   -1.9206 O.2       1 MOL         0.0000
     36 O3         -0.5560   -9.9239   -1.8730 O.2       1 MOL         0.0000
     37 O4          0.9000   -4.6880   -2.5395 O.3       1 MOL         0.0000
     38 O5         -1.3096   -5.7171   -1.0020 O.3       1 MOL         0.0000
     39 O6          3.4305   -3.6553   -1.7939 O.3       1 MOL         0.0000
     40 O7         -1.2173   -9.2275    0.1854 O.3       1 MOL         0.0000
     41 H1          2.0269   -8.3597    0.7310 H         1 MOL         0.0000
     42 H2          6.3534    0.2919   -3.1485 H         1 MOL         0.0000
     43 H3          2.7160   -6.8931    2.6097 H         1 MOL         0.0000
     44 H4          3.3241   -8.3577   -1.3843 H         1 MOL         0.0000
     45 H5          4.6878    1.7967   -2.0918 H         1 MOL         0.0000
     46 H6          7.0578   -1.7792   -2.0029 H         1 MOL         0.0000
     47 H7          4.6940   -5.4273    2.3790 H         1 MOL         0.0000
     48 H8          5.3035   -6.8956   -1.6250 H         1 MOL         0.0000
     49 H9          3.7235    1.2280    0.1124 H         1 MOL         0.0000
     50 H10        -0.2558   -2.6994    2.1738 H         1 MOL         0.0000
     51 H11        -1.6533   -4.5139    1.2634 H         1 MOL         0.0000
     52 H12         1.0700   -1.3638    5.4038 H         1 MOL         0.0000
     53 H13         0.7758   -2.9099    4.4144 H         1 MOL         0.0000
     54 H14         3.1382   -0.9608    4.2386 H         1 MOL         0.0000
     55 H15         0.2481   -5.9859   -3.9799 H         1 MOL         0.0000
     56 H16        -0.9330   -4.7614   -3.4776 H         1 MOL         0.0000
     57 H17         0.0846   -7.0683   -1.6864 H         1 MOL         0.0000
     58 H18         6.8178   -5.0268    1.1876 H         1 MOL         0.0000
     59 H19         7.0721   -5.6244   -0.4525 H         1 MOL         0.0000
     60 H20         5.0176   -1.2598    2.3537 H         1 MOL         0.0000
     61 H21         3.7507   -0.0560    2.0775 H         1 MOL         0.0000
     62 H22         2.1354   -0.7802    0.3147 H         1 MOL         0.0000
     63 H23         1.3990   -1.0664    1.8978 H         1 MOL         0.0000
     64 H24         2.3914   -3.5675    2.7421 H         1 MOL         0.0000
     65 H25         4.0663   -3.1339    3.1483 H         1 MOL         0.0000
     66 H26        -2.8933   -7.8309   -0.8910 H         1 MOL         0.0000
     67 H27        -3.1055   -8.9643   -2.2061 H         1 MOL         0.0000
     68 H28        -2.6087   -6.6839   -3.0617 H         1 MOL         0.0000
     69 H29        -1.3809   -7.8409   -3.5755 H         1 MOL         0.0000
     70 H30         5.4912   -3.8579   -1.1989 H         1 MOL         0.0000
     71 H31         3.5872   -2.7313    0.9190 H         1 MOL         0.0000
     72 H32         4.1998   -3.3253   -2.3053 H         1 MOL         0.0000
     73 H33        -0.5216   -9.7976    0.5767 H         1 MOL         0.0000
@<TRIPOS>BOND
     1    1    3 ar
     2    1    4 ar
     3    2    5 ar
     4    2    6 ar
     5    3    7 ar
     6    4    8 ar
     7    5    9 ar
     8    6   12 ar
     9    7   14 ar
    10    8   14 ar
    11    9   15 ar
    12   10   11 ar
    13   10   16 ar
    14   11   17 ar
    15   12   15 ar
    16   12   21 1
    17   13   16 ar
    18   13   18 ar
    19   13   22 1
    20   14   26 1
    21   15   27 1
    22   16   28 1
    23   17   18 ar
    24   17   38 1
    25   18   37 1
    26   19   20 2
    27   20   29 1
    28   21   32 am
    29   21   34 2
    30   22   35 2
    31   22   39 1
    32   23   30 1
    33   23   36 2
    34   23   40 1
    35   24   25 1
    36   24   37 1
    37   25   31 1
    38   25   38 1
    39   26   32 1
    40   27   33 1
    41   28   33 1
    42   29   33 1
    43   30   31 1
    44    1   41 1
    45    2   42 1
    46    3   43 1
    47    4   44 1
    48    5   45 1
    49    6   46 1
    50    7   47 1
    51    8   48 1
    52    9   49 1
    53   10   50 1
    54   11   51 1
    55   19   52 1
    56   19   53 1
    57   20   54 1
    58   24   55 1
    59   24   56 1
    60   25   57 1
    61   26   58 1
    62   26   59 1
    63   27   60 1
    64   27   61 1
    65   28   62 1
    66   28   63 1
    67   29   64 1
    68   29   65 1
    69   30   66 1
    70   30   67 1
    71   31   68 1
    72   31   69 1
    73   32   70 1
    74   33   71 1
    75   39   72 1
    76   40   73 1
