AVX38753_1
  -OEChem-03191316133D

 73 76  0     1  0  0  0  0  0999 V2000
    2.8956   -7.7161    0.6270 C   0  0  0  0  0  0  0  0  0  0  0  0
    5.9314    0.0404   -2.1796 C   0  0  0  0  0  0  0  0  0  0  0  0
    3.2830   -6.8917    1.6834 C   0  0  0  0  0  0  0  0  0  0  0  0
    3.6248   -7.7152   -0.5621 C   0  0  0  0  0  0  0  0  0  0  0  0
    4.9947    0.8861   -1.5855 C   0  0  0  0  0  0  0  0  0  0  0  0
    6.3263   -1.1290   -1.5298 C   0  0  0  0  0  0  0  0  0  0  0  0
    4.3996   -6.0664    1.5507 C   0  0  0  0  0  0  0  0  0  0  0  0
    4.7414   -6.8898   -0.6948 C   0  0  0  0  0  0  0  0  0  0  0  0
    4.4530    0.5624   -0.3415 C   0  0  0  0  0  0  0  0  0  0  0  0
   -0.0164   -3.1210    1.2009 C   0  0  0  0  0  0  0  0  0  0  0  0
   -0.8100   -4.1459    0.6854 C   0  0  0  0  0  0  0  0  0  0  0  0
    5.7846   -1.4527   -0.2859 C   0  0  0  0  0  0  0  0  0  0  0  0
    1.3729   -3.1932   -0.7766 C   0  0  0  0  0  0  0  0  0  0  0  0
    5.1289   -6.0654    0.3616 C   0  0  0  0  0  0  0  0  0  0  0  0
    4.8479   -0.6070    0.3083 C   0  0  0  0  0  0  0  0  0  0  0  0
    1.0768   -2.6492    0.4735 C   0  0  0  0  0  0  0  0  0  0  0  0
   -0.5061   -4.6999   -0.5585 C   0  0  0  0  0  0  0  0  0  0  0  0
    0.5714   -4.2087   -1.2988 C   0  0  0  0  0  0  0  0  0  0  0  0
    1.4019   -2.0524    4.6346 C   0  0  0  0  0  0  0  0  0  0  0  0
    2.5503   -1.8386    3.9832 C   0  0  0  0  0  0  0  0  0  0  0  0
    6.2150   -2.6795    0.3710 C   0  0  0  0  0  0  0  0  0  0  0  0
    2.5106   -2.6877   -1.5391 C   0  0  0  0  0  0  0  0  0  0  0  0
   -1.2943   -9.2477   -1.1680 C   0  0  0  0  0  0  0  0  0  0  0  0
   -0.1626   -5.4543   -3.1153 C   0  0  0  0  0  0  0  0  0  0  0  0
   -0.7172   -6.4368   -2.0921 C   0  0  2  0  0  0  0  0  0  0  0  0
    6.3307   -5.1771    0.2180 C   0  0  0  0  0  0  0  0  0  0  0  0
    4.2496   -0.9303    1.6457 C   0  0  0  0  0  0  0  0  0  0  0  0
    1.9101   -1.5550    1.0585 C   0  0  0  0  0  0  0  0  0  0  0  0
    3.0772   -2.7312    2.9083 C   0  0  0  0  0  0  0  0  0  0  0  0
   -2.3619   -8.3295   -1.7090 C   0  0  0  0  0  0  0  0  0  0  0  0
   -1.7937   -7.3227   -2.7019 C   0  0  0  0  0  0  0  0  0  0  0  0
    5.9830   -3.8781   -0.3115 N   0  0  0  0  0  0  0  0  0  0  0  0
    3.2196   -2.0291    1.5819 N   0  3  2  0  0  0  0  0  0  0  0  0
    6.7429   -2.6391    1.4952 O   0  0  0  0  0  0  0  0  0  0  0  0
    2.6497   -1.5244   -1.9206 O   0  0  0  0  0  0  0  0  0  0  0  0
   -0.5560   -9.9239   -1.8730 O   0  0  0  0  0  0  0  0  0  0  0  0
    0.9000   -4.6880   -2.5395 O   0  0  0  0  0  0  0  0  0  0  0  0
   -1.3096   -5.7171   -1.0020 O   0  0  0  0  0  0  0  0  0  0  0  0
    3.4305   -3.6553   -1.7939 O   0  0  0  0  0  0  0  0  0  0  0  0
   -1.2173   -9.2275    0.1854 O   0  0  0  0  0  0  0  0  0  0  0  0
    2.0269   -8.3597    0.7310 H   0  0  0  0  0  0  0  0  0  0  0  0
    6.3534    0.2919   -3.1485 H   0  0  0  0  0  0  0  0  0  0  0  0
    2.7160   -6.8931    2.6097 H   0  0  0  0  0  0  0  0  0  0  0  0
    3.3241   -8.3577   -1.3843 H   0  0  0  0  0  0  0  0  0  0  0  0
    4.6878    1.7967   -2.0918 H   0  0  0  0  0  0  0  0  0  0  0  0
    7.0578   -1.7792   -2.0029 H   0  0  0  0  0  0  0  0  0  0  0  0
    4.6940   -5.4273    2.3790 H   0  0  0  0  0  0  0  0  0  0  0  0
    5.3035   -6.8956   -1.6250 H   0  0  0  0  0  0  0  0  0  0  0  0
    3.7235    1.2280    0.1124 H   0  0  0  0  0  0  0  0  0  0  0  0
   -0.2558   -2.6994    2.1738 H   0  0  0  0  0  0  0  0  0  0  0  0
   -1.6533   -4.5139    1.2634 H   0  0  0  0  0  0  0  0  0  0  0  0
    1.0700   -1.3638    5.4038 H   0  0  0  0  0  0  0  0  0  0  0  0
    0.7758   -2.9099    4.4144 H   0  0  0  0  0  0  0  0  0  0  0  0
    3.1382   -0.9608    4.2386 H   0  0  0  0  0  0  0  0  0  0  0  0
    0.2481   -5.9859   -3.9799 H   0  0  0  0  0  0  0  0  0  0  0  0
   -0.9330   -4.7614   -3.4776 H   0  0  0  0  0  0  0  0  0  0  0  0
    0.0846   -7.0683   -1.6864 H   0  0  0  0  0  0  0  0  0  0  0  0
    6.8178   -5.0268    1.1876 H   0  0  0  0  0  0  0  0  0  0  0  0
    7.0721   -5.6244   -0.4525 H   0  0  0  0  0  0  0  0  0  0  0  0
    5.0176   -1.2598    2.3537 H   0  0  0  0  0  0  0  0  0  0  0  0
    3.7507   -0.0560    2.0775 H   0  0  0  0  0  0  0  0  0  0  0  0
    2.1354   -0.7802    0.3147 H   0  0  0  0  0  0  0  0  0  0  0  0
    1.3990   -1.0664    1.8978 H   0  0  0  0  0  0  0  0  0  0  0  0
    2.3914   -3.5675    2.7421 H   0  0  0  0  0  0  0  0  0  0  0  0
    4.0663   -3.1339    3.1483 H   0  0  0  0  0  0  0  0  0  0  0  0
   -2.8933   -7.8309   -0.8910 H   0  0  0  0  0  0  0  0  0  0  0  0
   -3.1055   -8.9643   -2.2061 H   0  0  0  0  0  0  0  0  0  0  0  0
   -2.6087   -6.6839   -3.0617 H   0  0  0  0  0  0  0  0  0  0  0  0
   -1.3809   -7.8409   -3.5755 H   0  0  0  0  0  0  0  0  0  0  0  0
    5.4912   -3.8579   -1.1989 H   0  0  0  0  0  0  0  0  0  0  0  0
    3.5872   -2.7313    0.9190 H   0  0  0  0  0  0  0  0  0  0  0  0
    4.1998   -3.3253   -2.3053 H   0  0  0  0  0  0  0  0  0  0  0  0
   -0.5216   -9.7976    0.5767 H   0  0  0  0  0  0  0  0  0  0  0  0
  1  3  1  0  0  0  0
  1  4  2  0  0  0  0
  2  5  1  0  0  0  0
  2  6  2  0  0  0  0
  3  7  2  0  0  0  0
  4  8  1  0  0  0  0
  5  9  2  0  0  0  0
  6 12  1  0  0  0  0
  7 14  1  0  0  0  0
  8 14  2  0  0  0  0
  9 15  1  0  0  0  0
 10 11  2  0  0  0  0
 10 16  1  0  0  0  0
 11 17  1  0  0  0  0
 12 15  2  0  0  0  0
 12 21  1  0  0  0  0
 13 16  2  0  0  0  0
 13 18  1  0  0  0  0
 13 22  1  0  0  0  0
 14 26  1  0  0  0  0
 15 27  1  0  0  0  0
 16 28  1  0  0  0  0
 17 18  2  0  0  0  0
 17 38  1  0  0  0  0
 18 37  1  0  0  0  0
 19 20  2  0  0  0  0
 20 29  1  0  0  0  0
 21 32  1  0  0  0  0
 21 34  2  0  0  0  0
 22 35  2  0  0  0  0
 22 39  1  0  0  0  0
 23 30  1  0  0  0  0
 23 36  2  0  0  0  0
 23 40  1  0  0  0  0
 24 25  1  0  0  0  0
 24 37  1  0  0  0  0
 25 31  1  1  0  0  0
 25 38  1  0  0  0  0
 26 32  1  0  0  0  0
 27 33  1  0  0  0  0
 28 33  1  0  0  0  0
 29 33  1  6  0  0  0
 30 31  1  0  0  0  0
  1 41  1  0  0  0  0
  2 42  1  0  0  0  0
  3 43  1  0  0  0  0
  4 44  1  0  0  0  0
  5 45  1  0  0  0  0
  6 46  1  0  0  0  0
  7 47  1  0  0  0  0
  8 48  1  0  0  0  0
  9 49  1  0  0  0  0
 10 50  1  0  0  0  0
 11 51  1  0  0  0  0
 19 52  1  0  0  0  0
 19 53  1  0  0  0  0
 20 54  1  0  0  0  0
 24 55  1  0  0  0  0
 24 56  1  0  0  0  0
 25 57  1  0  0  0  0
 26 58  1  0  0  0  0
 26 59  1  0  0  0  0
 27 60  1  0  0  0  0
 27 61  1  0  0  0  0
 28 62  1  0  0  0  0
 28 63  1  0  0  0  0
 29 64  1  0  0  0  0
 29 65  1  0  0  0  0
 30 66  1  0  0  0  0
 30 67  1  0  0  0  0
 31 68  1  0  0  0  0
 31 69  1  0  0  0  0
 32 70  1  0  0  0  0
 33 71  1  0  0  0  0
 39 72  1  0  0  0  0
 40 73  1  0  0  0  0
M  CHG  1  33   1
M  END
$$$$
