@<TRIPOS>MOLECULE
AVX38784_1
   68    70     0     0     0
SMALL
NO_CHARGES

@<TRIPOS>ATOM
      1 C1          1.1322   -4.9527    5.1709 C.ar      1 MOL         0.0000
      2 C2          0.5857   -5.0937    3.8954 C.ar      1 MOL         0.0000
      3 C3          2.3775   -4.3455    5.3329 C.ar      1 MOL         0.0000
      4 C4          1.2844   -4.6277    2.7818 C.ar      1 MOL         0.0000
      5 C5          1.9003    0.5449   -0.2735 C.ar      1 MOL         0.0000
      6 C6          1.8178    1.9333   -0.3819 C.ar      1 MOL         0.0000
      7 C7          3.0763   -3.8795    4.2192 C.ar      1 MOL         0.0000
      8 C8          1.6271    0.7092    2.1232 C.ar      1 MOL         0.0000
      9 C9          2.5298   -4.0206    2.9437 C.ar      1 MOL         0.0000
     10 C10         1.8107   -0.0658    0.9778 C.ar      1 MOL         0.0000
     11 C11         1.6481    2.7098    0.7647 C.ar      1 MOL         0.0000
     12 C12         1.5306    2.0967    2.0140 C.ar      1 MOL         0.0000
     13 C13         4.3751   -3.2501    4.4167 C.2       1 MOL         0.0000
     14 C14         1.5217    0.0644    3.4288 C.2       1 MOL         0.0000
     15 C15         1.8711    8.3386    0.3209 C.2       1 MOL         0.0000
     16 C16         0.9033    4.1432    2.9130 C.3       1 MOL         0.0000
     17 C17         1.7731    4.7730    1.8330 C.3       1 MOL         0.0000
     18 C18         5.3463   -1.6999    7.9959 C.3       1 MOL         0.0000
     19 C19         5.8281   -0.3114    4.3971 C.3       1 MOL         0.0000
     20 C20         4.3852   -1.5219    0.7716 C.3       1 MOL         0.0000
     21 C21         3.2598   -3.5290    1.7286 C.3       1 MOL         0.0000
     22 C22         1.9101   -1.5550    1.0585 C.3       1 MOL         0.0000
     23 C23         2.2559    6.8951    0.5302 C.3       1 MOL         0.0000
     24 C24         1.3952    6.2278    1.5960 C.3       1 MOL         0.0000
     25 C25         5.5599   -0.6941    6.8719 C.3       1 MOL         0.0000
     26 C26         5.6140   -1.3550    5.4885 C.3       1 MOL         0.0000
     27 N1          4.4080   -2.1042    5.2180 N.am      1 MOL         0.0000
     28 N2          3.2196   -2.0291    1.5819 N.4       1 MOL         0.0000
     29 O1          5.3894   -3.7162    3.8707 O.2       1 MOL         0.0000
     30 O2          0.6617   -0.7585    3.7474 O.2       1 MOL         0.0000
     31 O3          1.0345    8.9253    0.9958 O.2       1 MOL         0.0000
     32 O4          1.3296    2.8017    3.1713 O.3       1 MOL         0.0000
     33 O5          1.5949    4.0684    0.5965 O.3       1 MOL         0.0000
     34 O6          2.4957    0.4722    4.2845 O.3       1 MOL         0.0000
     35 O7          2.5691    8.9313   -0.6788 O.3       1 MOL         0.0000
     36 H1          0.5884   -5.3153    6.0385 H         1 MOL         0.0000
     37 H2         -0.3840   -5.5668    3.7699 H         1 MOL         0.0000
     38 H3          2.7932   -4.2426    6.3320 H         1 MOL         0.0000
     39 H4          0.8494   -4.7421    1.7924 H         1 MOL         0.0000
     40 H5          2.0395   -0.0525   -1.1709 H         1 MOL         0.0000
     41 H6          1.8987    2.4009   -1.3592 H         1 MOL         0.0000
     42 H7          0.9874    4.7001    3.8520 H         1 MOL         0.0000
     43 H8         -0.1557    4.1211    2.6253 H         1 MOL         0.0000
     44 H9          2.8351    4.7147    2.1072 H         1 MOL         0.0000
     45 H10         6.1412   -2.4517    8.0166 H         1 MOL         0.0000
     46 H11         5.3447   -1.1878    8.9634 H         1 MOL         0.0000
     47 H12         4.3868   -2.2147    7.8839 H         1 MOL         0.0000
     48 H13         5.0192    0.4263    4.3956 H         1 MOL         0.0000
     49 H14         6.7765    0.2198    4.5358 H         1 MOL         0.0000
     50 H15         5.8571   -0.7832    3.4087 H         1 MOL         0.0000
     51 H16         4.2861   -1.9183   -0.2405 H         1 MOL         0.0000
     52 H17         4.3429   -0.4311    0.7720 H         1 MOL         0.0000
     53 H18         5.3018   -1.8793    1.2449 H         1 MOL         0.0000
     54 H19         4.3170   -3.8137    1.7597 H         1 MOL         0.0000
     55 H20         2.8286   -3.9464    0.8123 H         1 MOL         0.0000
     56 H21         1.1414   -1.9735    1.7205 H         1 MOL         0.0000
     57 H22         1.7834   -2.0196    0.0724 H         1 MOL         0.0000
     58 H23         3.3228    6.8100    0.7641 H         1 MOL         0.0000
     59 H24         2.1189    6.3867   -0.4318 H         1 MOL         0.0000
     60 H25         0.3466    6.2686    1.2788 H         1 MOL         0.0000
     61 H26         1.4671    6.7769    2.5423 H         1 MOL         0.0000
     62 H27         4.7382    0.0319    6.8983 H         1 MOL         0.0000
     63 H28         6.4863   -0.1387    7.0636 H         1 MOL         0.0000
     64 H29         6.4417   -2.0730    5.4575 H         1 MOL         0.0000
     65 H30         3.5399   -1.7306    5.5876 H         1 MOL         0.0000
     66 H31         3.3375   -1.6405    2.5319 H         1 MOL         0.0000
     67 H32         2.4342    0.0437    5.1648 H         1 MOL         0.0000
     68 H33         2.3617    9.8772   -0.8346 H         1 MOL         0.0000
@<TRIPOS>BOND
     1    1    2 ar
     2    1    3 ar
     3    2    4 ar
     4    3    7 ar
     5    4    9 ar
     6    5    6 ar
     7    5   10 ar
     8    6   11 ar
     9    7    9 ar
    10    7   13 1
    11    8   10 ar
    12    8   12 ar
    13    8   14 1
    14    9   21 1
    15   10   22 1
    16   11   12 ar
    17   11   33 1
    18   12   32 1
    19   13   27 am
    20   13   29 2
    21   14   30 2
    22   14   34 1
    23   15   23 1
    24   15   31 2
    25   15   35 1
    26   16   17 1
    27   16   32 1
    28   17   24 1
    29   17   33 1
    30   18   25 1
    31   19   26 1
    32   20   28 1
    33   21   28 1
    34   22   28 1
    35   23   24 1
    36   25   26 1
    37   26   27 1
    38    1   36 1
    39    2   37 1
    40    3   38 1
    41    4   39 1
    42    5   40 1
    43    6   41 1
    44   16   42 1
    45   16   43 1
    46   17   44 1
    47   18   45 1
    48   18   46 1
    49   18   47 1
    50   19   48 1
    51   19   49 1
    52   19   50 1
    53   20   51 1
    54   20   52 1
    55   20   53 1
    56   21   54 1
    57   21   55 1
    58   22   56 1
    59   22   57 1
    60   23   58 1
    61   23   59 1
    62   24   60 1
    63   24   61 1
    64   25   62 1
    65   25   63 1
    66   26   64 1
    67   27   65 1
    68   28   66 1
    69   34   67 1
    70   35   68 1
