AVX38779_1
  -OEChem-03191316143D

 72 74  0     1  0  0  0  0  0999 V2000
    5.9314    0.0404   -2.1796 C   0  0  0  0  0  0  0  0  0  0  0  0
    4.9947    0.8861   -1.5855 C   0  0  0  0  0  0  0  0  0  0  0  0
    6.3263   -1.1290   -1.5298 C   0  0  0  0  0  0  0  0  0  0  0  0
    4.4530    0.5624   -0.3415 C   0  0  0  0  0  0  0  0  0  0  0  0
   -0.0164   -3.1210    1.2009 C   0  0  0  0  0  0  0  0  0  0  0  0
   -0.8100   -4.1459    0.6854 C   0  0  0  0  0  0  0  0  0  0  0  0
    5.7846   -1.4527   -0.2859 C   0  0  0  0  0  0  0  0  0  0  0  0
    1.3729   -3.1932   -0.7766 C   0  0  0  0  0  0  0  0  0  0  0  0
    4.8479   -0.6070    0.3083 C   0  0  0  0  0  0  0  0  0  0  0  0
    1.0768   -2.6492    0.4735 C   0  0  0  0  0  0  0  0  0  0  0  0
   -0.5061   -4.6999   -0.5585 C   0  0  0  0  0  0  0  0  0  0  0  0
    0.5714   -4.2087   -1.2988 C   0  0  0  0  0  0  0  0  0  0  0  0
    1.4019   -2.0524    4.6346 C   0  0  0  0  0  0  0  0  0  0  0  0
    2.5503   -1.8386    3.9832 C   0  0  0  0  0  0  0  0  0  0  0  0
    6.2150   -2.6795    0.3710 C   0  0  0  0  0  0  0  0  0  0  0  0
    2.5106   -2.6877   -1.5391 C   0  0  0  0  0  0  0  0  0  0  0  0
   -3.4180   -9.2035   -2.3385 C   0  0  0  0  0  0  0  0  0  0  0  0
   -0.1626   -5.4543   -3.1153 C   0  0  0  0  0  0  0  0  0  0  0  0
   -0.7172   -6.4368   -2.0921 C   0  0  2  0  0  0  0  0  0  0  0  0
    7.5148   -2.5868    4.1736 C   0  0  0  0  0  0  0  0  0  0  0  0
    8.9134   -4.4163    1.0418 C   0  0  0  0  0  0  0  0  0  0  0  0
    4.2496   -0.9303    1.6457 C   0  0  0  0  0  0  0  0  0  0  0  0
    1.9101   -1.5550    1.0585 C   0  0  0  0  0  0  0  0  0  0  0  0
    3.0772   -2.7312    2.9083 C   0  0  0  0  0  0  0  0  0  0  0  0
   -2.3619   -8.3295   -1.7090 C   0  0  0  0  0  0  0  0  0  0  0  0
   -1.7937   -7.3227   -2.7019 C   0  0  0  0  0  0  0  0  0  0  0  0
    8.5085   -3.2898    3.2576 C   0  0  0  0  0  0  0  0  0  0  0  0
    7.8832   -3.7189    1.9240 C   0  0  1  0  0  0  0  0  0  0  0  0
    7.3228   -2.5879    1.2200 N   0  0  0  0  0  0  0  0  0  0  0  0
    3.2196   -2.0291    1.5819 N   0  3  2  0  0  0  0  0  0  0  0  0
    5.6223   -3.7500    0.1549 O   0  0  0  0  0  0  0  0  0  0  0  0
    2.6497   -1.5244   -1.9206 O   0  0  0  0  0  0  0  0  0  0  0  0
   -3.7102   -9.1701   -3.5272 O   0  0  0  0  0  0  0  0  0  0  0  0
    0.9000   -4.6880   -2.5395 O   0  0  0  0  0  0  0  0  0  0  0  0
   -1.3096   -5.7171   -1.0021 O   0  0  0  0  0  0  0  0  0  0  0  0
    3.4305   -3.6553   -1.7939 O   0  0  0  0  0  0  0  0  0  0  0  0
   -3.9954  -10.0535   -1.4542 O   0  0  0  0  0  0  0  0  0  0  0  0
    6.3534    0.2919   -3.1485 H   0  0  0  0  0  0  0  0  0  0  0  0
    4.6878    1.7967   -2.0918 H   0  0  0  0  0  0  0  0  0  0  0  0
    7.0578   -1.7792   -2.0028 H   0  0  0  0  0  0  0  0  0  0  0  0
    3.7235    1.2280    0.1124 H   0  0  0  0  0  0  0  0  0  0  0  0
   -0.2558   -2.6994    2.1738 H   0  0  0  0  0  0  0  0  0  0  0  0
   -1.6533   -4.5139    1.2633 H   0  0  0  0  0  0  0  0  0  0  0  0
    1.0700   -1.3638    5.4038 H   0  0  0  0  0  0  0  0  0  0  0  0
    0.7758   -2.9099    4.4144 H   0  0  0  0  0  0  0  0  0  0  0  0
    3.1382   -0.9608    4.2386 H   0  0  0  0  0  0  0  0  0  0  0  0
    0.2481   -5.9859   -3.9799 H   0  0  0  0  0  0  0  0  0  0  0  0
   -0.9330   -4.7614   -3.4776 H   0  0  0  0  0  0  0  0  0  0  0  0
    0.0846   -7.0683   -1.6864 H   0  0  0  0  0  0  0  0  0  0  0  0
    6.6561   -3.2267    4.3987 H   0  0  0  0  0  0  0  0  0  0  0  0
    7.9962   -2.3269    5.1218 H   0  0  0  0  0  0  0  0  0  0  0  0
    7.1466   -1.6628    3.7166 H   0  0  0  0  0  0  0  0  0  0  0  0
    9.7597   -3.7551    0.8291 H   0  0  0  0  0  0  0  0  0  0  0  0
    9.2987   -5.3231    1.5215 H   0  0  0  0  0  0  0  0  0  0  0  0
    8.4684   -4.7139    0.0858 H   0  0  0  0  0  0  0  0  0  0  0  0
    5.0176   -1.2598    2.3537 H   0  0  0  0  0  0  0  0  0  0  0  0
    3.7507   -0.0560    2.0775 H   0  0  0  0  0  0  0  0  0  0  0  0
    2.1354   -0.7802    0.3147 H   0  0  0  0  0  0  0  0  0  0  0  0
    1.3990   -1.0664    1.8978 H   0  0  0  0  0  0  0  0  0  0  0  0
    2.3914   -3.5675    2.7421 H   0  0  0  0  0  0  0  0  0  0  0  0
    4.0663   -3.1339    3.1483 H   0  0  0  0  0  0  0  0  0  0  0  0
   -1.5715   -8.9412   -1.2604 H   0  0  0  0  0  0  0  0  0  0  0  0
   -2.8412   -7.8015   -0.8757 H   0  0  0  0  0  0  0  0  0  0  0  0
   -2.6087   -6.6839   -3.0617 H   0  0  0  0  0  0  0  0  0  0  0  0
   -1.3809   -7.8409   -3.5755 H   0  0  0  0  0  0  0  0  0  0  0  0
    9.3443   -2.6059    3.0663 H   0  0  0  0  0  0  0  0  0  0  0  0
    8.9195   -4.1614    3.7819 H   0  0  0  0  0  0  0  0  0  0  0  0
    7.0546   -4.4110    2.1136 H   0  0  0  0  0  0  0  0  0  0  0  0
    7.8076   -1.7011    1.3111 H   0  0  0  0  0  0  0  0  0  0  0  0
    3.5872   -2.7313    0.9190 H   0  0  0  0  0  0  0  0  0  0  0  0
    4.1998   -3.3253   -2.3053 H   0  0  0  0  0  0  0  0  0  0  0  0
   -4.6752  -10.6535   -1.8282 H   0  0  0  0  0  0  0  0  0  0  0  0
  1  2  1  0  0  0  0
  1  3  2  0  0  0  0
  2  4  2  0  0  0  0
  3  7  1  0  0  0  0
  4  9  1  0  0  0  0
  5  6  2  0  0  0  0
  5 10  1  0  0  0  0
  6 11  1  0  0  0  0
  7  9  2  0  0  0  0
  7 15  1  0  0  0  0
  8 10  2  0  0  0  0
  8 12  1  0  0  0  0
  8 16  1  0  0  0  0
  9 22  1  0  0  0  0
 10 23  1  0  0  0  0
 11 12  2  0  0  0  0
 11 35  1  0  0  0  0
 12 34  1  0  0  0  0
 13 14  2  0  0  0  0
 14 24  1  0  0  0  0
 15 29  1  0  0  0  0
 15 31  2  0  0  0  0
 16 32  2  0  0  0  0
 16 36  1  0  0  0  0
 17 25  1  0  0  0  0
 17 33  2  0  0  0  0
 17 37  1  0  0  0  0
 18 19  1  0  0  0  0
 18 34  1  0  0  0  0
 19 26  1  1  0  0  0
 19 35  1  0  0  0  0
 20 27  1  0  0  0  0
 21 28  1  6  0  0  0
 22 30  1  1  0  0  0
 23 30  1  0  0  0  0
 24 30  1  0  0  0  0
 25 26  1  0  0  0  0
 27 28  1  0  0  0  0
 28 29  1  0  0  0  0
  1 38  1  0  0  0  0
  2 39  1  0  0  0  0
  3 40  1  0  0  0  0
  4 41  1  0  0  0  0
  5 42  1  0  0  0  0
  6 43  1  0  0  0  0
 13 44  1  0  0  0  0
 13 45  1  0  0  0  0
 14 46  1  0  0  0  0
 18 47  1  0  0  0  0
 18 48  1  0  0  0  0
 19 49  1  0  0  0  0
 20 50  1  0  0  0  0
 20 51  1  0  0  0  0
 20 52  1  0  0  0  0
 21 53  1  0  0  0  0
 21 54  1  0  0  0  0
 21 55  1  0  0  0  0
 22 56  1  0  0  0  0
 22 57  1  0  0  0  0
 23 58  1  0  0  0  0
 23 59  1  0  0  0  0
 24 60  1  0  0  0  0
 24 61  1  0  0  0  0
 25 62  1  0  0  0  0
 25 63  1  0  0  0  0
 26 64  1  0  0  0  0
 26 65  1  0  0  0  0
 27 66  1  0  0  0  0
 27 67  1  0  0  0  0
 28 68  1  0  0  0  0
 29 69  1  0  0  0  0
 30 70  1  0  0  0  0
 36 71  1  0  0  0  0
 37 72  1  0  0  0  0
M  CHG  1  30   1
M  END
$$$$
