AVX38741_0
  -OEChem-03191316113D

 66 70  0     1  0  0  0  0  0999 V2000
    1.8436    4.4897    3.6947 C   0  0  0  0  0  0  0  0  0  0  0  0
   -0.6846   -3.0401   -0.1720 C   0  0  0  0  0  0  0  0  0  0  0  0
   -1.9580   -2.4760   -0.1177 C   0  0  0  0  0  0  0  0  0  0  0  0
    1.4480    4.9528    2.4399 C   0  0  0  0  0  0  0  0  0  0  0  0
    2.4955    3.2620    3.8114 C   0  0  0  0  0  0  0  0  0  0  0  0
    0.4426   -2.2437    0.0241 C   0  0  0  0  0  0  0  0  0  0  0  0
   -2.1114   -1.1130    0.1406 C   0  0  0  0  0  0  0  0  0  0  0  0
    1.7042    4.1883    1.3017 C   0  0  0  0  0  0  0  0  0  0  0  0
    2.7516    2.4974    2.6732 C   0  0  0  0  0  0  0  0  0  0  0  0
   -1.0336    3.4993   -3.4800 C   0  0  0  0  0  0  0  0  0  0  0  0
   -0.7849    4.6511   -4.2267 C   0  0  0  0  0  0  0  0  0  0  0  0
    0.2925   -0.8741    0.2682 C   0  0  0  0  0  0  0  0  0  0  0  0
   -1.7375    4.8574   -1.6076 C   0  0  0  0  0  0  0  0  0  0  0  0
   -0.9904   -0.2972    0.3444 C   0  0  0  0  0  0  0  0  0  0  0  0
    2.3560    2.9606    1.4183 C   0  0  0  0  0  0  0  0  0  0  0  0
   -1.5039    3.6024   -2.1704 C   0  0  0  0  0  0  0  0  0  0  0  0
   -1.0051    5.9066   -3.6597 C   0  0  0  0  0  0  0  0  0  0  0  0
   -1.5021    6.0093   -2.3585 C   0  0  0  0  0  0  0  0  0  0  0  0
    1.5163   -0.0566    0.4747 C   0  0  0  0  0  0  0  0  0  0  0  0
   -2.2412    4.9596   -0.2411 C   0  0  0  0  0  0  0  0  0  0  0  0
    0.5364   10.5210   -6.5339 C   0  0  0  0  0  0  0  0  0  0  0  0
   -1.1669    1.1720    0.6518 C   0  0  0  0  0  0  0  0  0  0  0  0
   -1.8300    8.2810   -2.7077 C   0  0  0  0  0  0  0  0  0  0  0  0
    0.5303    1.6738   -1.0662 C   0  0  0  0  0  0  0  0  0  0  0  0
   -0.6449    8.2052   -3.6613 C   0  0  2  0  0  0  0  0  0  0  0  0
    2.6318    2.1370    0.1936 C   0  0  0  0  0  0  0  0  0  0  0  0
   -1.7543    2.3427   -1.3928 C   0  0  0  0  0  0  0  0  0  0  0  0
    0.5441    9.3430   -5.5916 C   0  0  0  0  0  0  0  0  0  0  0  0
   -0.6378    9.3785   -4.6303 C   0  0  0  0  0  0  0  0  0  0  0  0
    1.5410    1.2202   -0.1033 N   0  0  0  0  0  0  0  0  0  0  0  0
   -0.7089    2.0956   -0.3991 N   0  0  1  0  0  0  0  0  0  0  0  0
    2.4200   -0.5408    1.1537 O   0  0  0  0  0  0  0  0  0  0  0  0
   -3.3072    4.4897    0.1602 O   0  0  0  0  0  0  0  0  0  0  0  0
   -0.2680   11.4417   -6.4669 O   0  0  0  0  0  0  0  0  0  0  0  0
   -1.7701    7.2115   -1.7587 O   0  0  0  0  0  0  0  0  0  0  0  0
   -0.7230    7.0001   -4.4352 O   0  0  0  0  0  0  0  0  0  0  0  0
   -1.3925    5.6439    0.5706 O   0  0  0  0  0  0  0  0  0  0  0  0
    1.5333   10.4693   -7.4513 O   0  0  0  0  0  0  0  0  0  0  0  0
    1.6453    5.0857    4.5807 H   0  0  0  0  0  0  0  0  0  0  0  0
   -0.5704   -4.1029   -0.3653 H   0  0  0  0  0  0  0  0  0  0  0  0
   -2.8333   -3.0981   -0.2812 H   0  0  0  0  0  0  0  0  0  0  0  0
    0.9414    5.9092    2.3487 H   0  0  0  0  0  0  0  0  0  0  0  0
    2.8046    2.9016    4.7880 H   0  0  0  0  0  0  0  0  0  0  0  0
    1.4266   -2.7042   -0.0035 H   0  0  0  0  0  0  0  0  0  0  0  0
   -3.1129   -0.6918    0.1773 H   0  0  0  0  0  0  0  0  0  0  0  0
    1.3921    4.5570    0.3281 H   0  0  0  0  0  0  0  0  0  0  0  0
    3.2599    1.5421    2.7737 H   0  0  0  0  0  0  0  0  0  0  0  0
   -0.8529    2.5249   -3.9267 H   0  0  0  0  0  0  0  0  0  0  0  0
   -0.4092    4.5613   -5.2423 H   0  0  0  0  0  0  0  0  0  0  0  0
   -2.2351    1.3535    0.8354 H   0  0  0  0  0  0  0  0  0  0  0  0
   -0.6953    1.4218    1.6118 H   0  0  0  0  0  0  0  0  0  0  0  0
   -1.8147    9.2198   -2.1445 H   0  0  0  0  0  0  0  0  0  0  0  0
   -2.7884    8.2197   -3.2392 H   0  0  0  0  0  0  0  0  0  0  0  0
    0.9677    2.4882   -1.6586 H   0  0  0  0  0  0  0  0  0  0  0  0
    0.3194    0.8516   -1.7604 H   0  0  0  0  0  0  0  0  0  0  0  0
    0.3013    8.1902   -3.1039 H   0  0  0  0  0  0  0  0  0  0  0  0
    2.7781    2.7814   -0.6801 H   0  0  0  0  0  0  0  0  0  0  0  0
    3.5439    1.5435    0.3164 H   0  0  0  0  0  0  0  0  0  0  0  0
   -2.7136    2.3980   -0.8667 H   0  0  0  0  0  0  0  0  0  0  0  0
   -1.7972    1.4730   -2.0568 H   0  0  0  0  0  0  0  0  0  0  0  0
    1.4971    9.2844   -5.0545 H   0  0  0  0  0  0  0  0  0  0  0  0
    0.4936    8.4396   -6.2113 H   0  0  0  0  0  0  0  0  0  0  0  0
   -1.5665    9.3558   -5.2124 H   0  0  0  0  0  0  0  0  0  0  0  0
   -0.6374   10.3154   -4.0608 H   0  0  0  0  0  0  0  0  0  0  0  0
   -1.7217    5.7174    1.4918 H   0  0  0  0  0  0  0  0  0  0  0  0
    1.5749   11.2277   -8.0719 H   0  0  0  0  0  0  0  0  0  0  0  0
  1  4  1  0  0  0  0
  1  5  2  0  0  0  0
  2  3  1  0  0  0  0
  2  6  2  0  0  0  0
  3  7  2  0  0  0  0
  4  8  2  0  0  0  0
  5  9  1  0  0  0  0
  6 12  1  0  0  0  0
  7 14  1  0  0  0  0
  8 15  1  0  0  0  0
  9 15  2  0  0  0  0
 10 11  2  0  0  0  0
 10 16  1  0  0  0  0
 11 17  1  0  0  0  0
 12 14  2  0  0  0  0
 12 19  1  0  0  0  0
 13 16  2  0  0  0  0
 13 18  1  0  0  0  0
 13 20  1  0  0  0  0
 14 22  1  0  0  0  0
 15 26  1  0  0  0  0
 16 27  1  0  0  0  0
 17 18  2  0  0  0  0
 17 36  1  0  0  0  0
 18 35  1  0  0  0  0
 19 30  1  0  0  0  0
 19 32  2  0  0  0  0
 20 33  2  0  0  0  0
 20 37  1  0  0  0  0
 21 28  1  0  0  0  0
 21 34  2  0  0  0  0
 21 38  1  0  0  0  0
 22 31  1  0  0  0  0
 23 25  1  0  0  0  0
 23 35  1  0  0  0  0
 24 30  1  0  0  0  0
 24 31  1  0  0  0  0
 25 29  1  1  0  0  0
 25 36  1  0  0  0  0
 26 30  1  0  0  0  0
 27 31  1  0  0  0  0
 28 29  1  0  0  0  0
  1 39  1  0  0  0  0
  2 40  1  0  0  0  0
  3 41  1  0  0  0  0
  4 42  1  0  0  0  0
  5 43  1  0  0  0  0
  6 44  1  0  0  0  0
  7 45  1  0  0  0  0
  8 46  1  0  0  0  0
  9 47  1  0  0  0  0
 10 48  1  0  0  0  0
 11 49  1  0  0  0  0
 22 50  1  0  0  0  0
 22 51  1  0  0  0  0
 23 52  1  0  0  0  0
 23 53  1  0  0  0  0
 24 54  1  0  0  0  0
 24 55  1  0  0  0  0
 25 56  1  0  0  0  0
 26 57  1  0  0  0  0
 26 58  1  0  0  0  0
 27 59  1  0  0  0  0
 27 60  1  0  0  0  0
 28 61  1  0  0  0  0
 28 62  1  0  0  0  0
 29 63  1  0  0  0  0
 29 64  1  0  0  0  0
 37 65  1  0  0  0  0
 38 66  1  0  0  0  0
M  END
$$$$
