AVX38784_1
  -OEChem-03191316153D

 68 70  0     1  0  0  0  0  0999 V2000
    1.1322   -4.9527    5.1709 C   0  0  0  0  0  0  0  0  0  0  0  0
    0.5857   -5.0937    3.8954 C   0  0  0  0  0  0  0  0  0  0  0  0
    2.3775   -4.3455    5.3329 C   0  0  0  0  0  0  0  0  0  0  0  0
    1.2844   -4.6277    2.7818 C   0  0  0  0  0  0  0  0  0  0  0  0
    1.9003    0.5449   -0.2735 C   0  0  0  0  0  0  0  0  0  0  0  0
    1.8178    1.9333   -0.3819 C   0  0  0  0  0  0  0  0  0  0  0  0
    3.0763   -3.8795    4.2192 C   0  0  0  0  0  0  0  0  0  0  0  0
    1.6271    0.7092    2.1232 C   0  0  0  0  0  0  0  0  0  0  0  0
    2.5298   -4.0206    2.9437 C   0  0  0  0  0  0  0  0  0  0  0  0
    1.8107   -0.0658    0.9778 C   0  0  0  0  0  0  0  0  0  0  0  0
    1.6481    2.7098    0.7647 C   0  0  0  0  0  0  0  0  0  0  0  0
    1.5306    2.0967    2.0140 C   0  0  0  0  0  0  0  0  0  0  0  0
    4.3751   -3.2501    4.4167 C   0  0  0  0  0  0  0  0  0  0  0  0
    1.5217    0.0644    3.4288 C   0  0  0  0  0  0  0  0  0  0  0  0
    1.8711    8.3386    0.3209 C   0  0  0  0  0  0  0  0  0  0  0  0
    0.9033    4.1432    2.9130 C   0  0  0  0  0  0  0  0  0  0  0  0
    1.7731    4.7730    1.8330 C   0  0  2  0  0  0  0  0  0  0  0  0
    5.3463   -1.6999    7.9959 C   0  0  0  0  0  0  0  0  0  0  0  0
    5.8281   -0.3114    4.3971 C   0  0  0  0  0  0  0  0  0  0  0  0
    4.3852   -1.5219    0.7716 C   0  0  0  0  0  0  0  0  0  0  0  0
    3.2598   -3.5290    1.7286 C   0  0  0  0  0  0  0  0  0  0  0  0
    1.9101   -1.5550    1.0585 C   0  0  0  0  0  0  0  0  0  0  0  0
    2.2559    6.8951    0.5302 C   0  0  0  0  0  0  0  0  0  0  0  0
    1.3952    6.2278    1.5960 C   0  0  0  0  0  0  0  0  0  0  0  0
    5.5599   -0.6941    6.8719 C   0  0  0  0  0  0  0  0  0  0  0  0
    5.6140   -1.3550    5.4885 C   0  0  1  0  0  0  0  0  0  0  0  0
    4.4080   -2.1042    5.2180 N   0  0  0  0  0  0  0  0  0  0  0  0
    3.2196   -2.0291    1.5819 N   0  3  2  0  0  0  0  0  0  0  0  0
    5.3894   -3.7162    3.8707 O   0  0  0  0  0  0  0  0  0  0  0  0
    0.6617   -0.7585    3.7474 O   0  0  0  0  0  0  0  0  0  0  0  0
    1.0345    8.9253    0.9958 O   0  0  0  0  0  0  0  0  0  0  0  0
    1.3296    2.8017    3.1713 O   0  0  0  0  0  0  0  0  0  0  0  0
    1.5949    4.0684    0.5965 O   0  0  0  0  0  0  0  0  0  0  0  0
    2.4957    0.4722    4.2845 O   0  0  0  0  0  0  0  0  0  0  0  0
    2.5691    8.9313   -0.6788 O   0  0  0  0  0  0  0  0  0  0  0  0
    0.5884   -5.3153    6.0385 H   0  0  0  0  0  0  0  0  0  0  0  0
   -0.3840   -5.5668    3.7699 H   0  0  0  0  0  0  0  0  0  0  0  0
    2.7932   -4.2426    6.3320 H   0  0  0  0  0  0  0  0  0  0  0  0
    0.8494   -4.7421    1.7924 H   0  0  0  0  0  0  0  0  0  0  0  0
    2.0395   -0.0525   -1.1709 H   0  0  0  0  0  0  0  0  0  0  0  0
    1.8987    2.4009   -1.3592 H   0  0  0  0  0  0  0  0  0  0  0  0
    0.9874    4.7001    3.8520 H   0  0  0  0  0  0  0  0  0  0  0  0
   -0.1557    4.1211    2.6253 H   0  0  0  0  0  0  0  0  0  0  0  0
    2.8351    4.7147    2.1072 H   0  0  0  0  0  0  0  0  0  0  0  0
    6.1412   -2.4517    8.0166 H   0  0  0  0  0  0  0  0  0  0  0  0
    5.3447   -1.1878    8.9634 H   0  0  0  0  0  0  0  0  0  0  0  0
    4.3868   -2.2147    7.8839 H   0  0  0  0  0  0  0  0  0  0  0  0
    5.0192    0.4263    4.3956 H   0  0  0  0  0  0  0  0  0  0  0  0
    6.7765    0.2198    4.5358 H   0  0  0  0  0  0  0  0  0  0  0  0
    5.8571   -0.7832    3.4087 H   0  0  0  0  0  0  0  0  0  0  0  0
    4.2861   -1.9183   -0.2405 H   0  0  0  0  0  0  0  0  0  0  0  0
    4.3429   -0.4311    0.7720 H   0  0  0  0  0  0  0  0  0  0  0  0
    5.3018   -1.8793    1.2449 H   0  0  0  0  0  0  0  0  0  0  0  0
    4.3170   -3.8137    1.7597 H   0  0  0  0  0  0  0  0  0  0  0  0
    2.8286   -3.9464    0.8123 H   0  0  0  0  0  0  0  0  0  0  0  0
    1.1414   -1.9735    1.7205 H   0  0  0  0  0  0  0  0  0  0  0  0
    1.7834   -2.0196    0.0724 H   0  0  0  0  0  0  0  0  0  0  0  0
    3.3228    6.8100    0.7641 H   0  0  0  0  0  0  0  0  0  0  0  0
    2.1189    6.3867   -0.4318 H   0  0  0  0  0  0  0  0  0  0  0  0
    0.3466    6.2686    1.2788 H   0  0  0  0  0  0  0  0  0  0  0  0
    1.4671    6.7769    2.5423 H   0  0  0  0  0  0  0  0  0  0  0  0
    4.7382    0.0319    6.8983 H   0  0  0  0  0  0  0  0  0  0  0  0
    6.4863   -0.1387    7.0636 H   0  0  0  0  0  0  0  0  0  0  0  0
    6.4417   -2.0730    5.4575 H   0  0  0  0  0  0  0  0  0  0  0  0
    3.5399   -1.7306    5.5876 H   0  0  0  0  0  0  0  0  0  0  0  0
    3.3375   -1.6405    2.5319 H   0  0  0  0  0  0  0  0  0  0  0  0
    2.4342    0.0437    5.1648 H   0  0  0  0  0  0  0  0  0  0  0  0
    2.3617    9.8772   -0.8346 H   0  0  0  0  0  0  0  0  0  0  0  0
  1  2  1  0  0  0  0
  1  3  2  0  0  0  0
  2  4  2  0  0  0  0
  3  7  1  0  0  0  0
  4  9  1  0  0  0  0
  5  6  2  0  0  0  0
  5 10  1  0  0  0  0
  6 11  1  0  0  0  0
  7  9  2  0  0  0  0
  7 13  1  0  0  0  0
  8 10  2  0  0  0  0
  8 12  1  0  0  0  0
  8 14  1  0  0  0  0
  9 21  1  0  0  0  0
 10 22  1  0  0  0  0
 11 12  2  0  0  0  0
 11 33  1  0  0  0  0
 12 32  1  0  0  0  0
 13 27  1  0  0  0  0
 13 29  2  0  0  0  0
 14 30  2  0  0  0  0
 14 34  1  0  0  0  0
 15 23  1  0  0  0  0
 15 31  2  0  0  0  0
 15 35  1  0  0  0  0
 16 17  1  0  0  0  0
 16 32  1  0  0  0  0
 17 24  1  1  0  0  0
 17 33  1  0  0  0  0
 18 25  1  0  0  0  0
 19 26  1  6  0  0  0
 20 28  1  1  0  0  0
 21 28  1  0  0  0  0
 22 28  1  0  0  0  0
 23 24  1  0  0  0  0
 25 26  1  0  0  0  0
 26 27  1  0  0  0  0
  1 36  1  0  0  0  0
  2 37  1  0  0  0  0
  3 38  1  0  0  0  0
  4 39  1  0  0  0  0
  5 40  1  0  0  0  0
  6 41  1  0  0  0  0
 16 42  1  0  0  0  0
 16 43  1  0  0  0  0
 17 44  1  0  0  0  0
 18 45  1  0  0  0  0
 18 46  1  0  0  0  0
 18 47  1  0  0  0  0
 19 48  1  0  0  0  0
 19 49  1  0  0  0  0
 19 50  1  0  0  0  0
 20 51  1  0  0  0  0
 20 52  1  0  0  0  0
 20 53  1  0  0  0  0
 21 54  1  0  0  0  0
 21 55  1  0  0  0  0
 22 56  1  0  0  0  0
 22 57  1  0  0  0  0
 23 58  1  0  0  0  0
 23 59  1  0  0  0  0
 24 60  1  0  0  0  0
 24 61  1  0  0  0  0
 25 62  1  0  0  0  0
 25 63  1  0  0  0  0
 26 64  1  0  0  0  0
 27 65  1  0  0  0  0
 28 66  1  0  0  0  0
 34 67  1  0  0  0  0
 35 68  1  0  0  0  0
M  CHG  1  28   1
M  END
$$$$
