@<TRIPOS>MOLECULE
AVX38741_0
   66    70     0     0     0
SMALL
NO_CHARGES

@<TRIPOS>ATOM
      1 C1          1.8436    4.4897    3.6947 C.ar      1 MOL         0.0000
      2 C2         -0.6846   -3.0401   -0.1720 C.ar      1 MOL         0.0000
      3 C3         -1.9580   -2.4760   -0.1177 C.ar      1 MOL         0.0000
      4 C4          1.4480    4.9528    2.4399 C.ar      1 MOL         0.0000
      5 C5          2.4955    3.2620    3.8114 C.ar      1 MOL         0.0000
      6 C6          0.4426   -2.2437    0.0241 C.ar      1 MOL         0.0000
      7 C7         -2.1114   -1.1130    0.1406 C.ar      1 MOL         0.0000
      8 C8          1.7042    4.1883    1.3017 C.ar      1 MOL         0.0000
      9 C9          2.7516    2.4974    2.6732 C.ar      1 MOL         0.0000
     10 C10        -1.0336    3.4993   -3.4800 C.ar      1 MOL         0.0000
     11 C11        -0.7849    4.6511   -4.2267 C.ar      1 MOL         0.0000
     12 C12         0.2925   -0.8741    0.2682 C.ar      1 MOL         0.0000
     13 C13        -1.7375    4.8574   -1.6076 C.ar      1 MOL         0.0000
     14 C14        -0.9904   -0.2972    0.3444 C.ar      1 MOL         0.0000
     15 C15         2.3560    2.9606    1.4183 C.ar      1 MOL         0.0000
     16 C16        -1.5039    3.6024   -2.1704 C.ar      1 MOL         0.0000
     17 C17        -1.0051    5.9066   -3.6597 C.ar      1 MOL         0.0000
     18 C18        -1.5021    6.0093   -2.3585 C.ar      1 MOL         0.0000
     19 C19         1.5163   -0.0566    0.4747 C.2       1 MOL         0.0000
     20 C20        -2.2412    4.9596   -0.2411 C.2       1 MOL         0.0000
     21 C21         0.5364   10.5210   -6.5339 C.2       1 MOL         0.0000
     22 C22        -1.1669    1.1720    0.6518 C.3       1 MOL         0.0000
     23 C23        -1.8300    8.2810   -2.7077 C.3       1 MOL         0.0000
     24 C24         0.5303    1.6738   -1.0662 C.3       1 MOL         0.0000
     25 C25        -0.6449    8.2052   -3.6613 C.3       1 MOL         0.0000
     26 C26         2.6318    2.1370    0.1936 C.3       1 MOL         0.0000
     27 C27        -1.7543    2.3427   -1.3928 C.3       1 MOL         0.0000
     28 C28         0.5441    9.3430   -5.5916 C.3       1 MOL         0.0000
     29 C29        -0.6378    9.3785   -4.6303 C.3       1 MOL         0.0000
     30 N1          1.5410    1.2202   -0.1033 N.am      1 MOL         0.0000
     31 N2         -0.7089    2.0956   -0.3991 N.3       1 MOL         0.0000
     32 O1          2.4200   -0.5408    1.1537 O.2       1 MOL         0.0000
     33 O2         -3.3072    4.4897    0.1602 O.2       1 MOL         0.0000
     34 O3         -0.2680   11.4417   -6.4669 O.2       1 MOL         0.0000
     35 O4         -1.7701    7.2115   -1.7587 O.3       1 MOL         0.0000
     36 O5         -0.7230    7.0001   -4.4352 O.3       1 MOL         0.0000
     37 O6         -1.3925    5.6439    0.5706 O.3       1 MOL         0.0000
     38 O7          1.5333   10.4693   -7.4513 O.3       1 MOL         0.0000
     39 H1          1.6453    5.0857    4.5807 H         1 MOL         0.0000
     40 H2         -0.5704   -4.1029   -0.3653 H         1 MOL         0.0000
     41 H3         -2.8333   -3.0981   -0.2812 H         1 MOL         0.0000
     42 H4          0.9414    5.9092    2.3487 H         1 MOL         0.0000
     43 H5          2.8046    2.9016    4.7880 H         1 MOL         0.0000
     44 H6          1.4266   -2.7042   -0.0035 H         1 MOL         0.0000
     45 H7         -3.1129   -0.6918    0.1773 H         1 MOL         0.0000
     46 H8          1.3921    4.5570    0.3281 H         1 MOL         0.0000
     47 H9          3.2599    1.5421    2.7737 H         1 MOL         0.0000
     48 H10        -0.8529    2.5249   -3.9267 H         1 MOL         0.0000
     49 H11        -0.4092    4.5613   -5.2423 H         1 MOL         0.0000
     50 H12        -2.2351    1.3535    0.8354 H         1 MOL         0.0000
     51 H13        -0.6953    1.4218    1.6118 H         1 MOL         0.0000
     52 H14        -1.8147    9.2198   -2.1445 H         1 MOL         0.0000
     53 H15        -2.7884    8.2197   -3.2392 H         1 MOL         0.0000
     54 H16         0.9677    2.4882   -1.6586 H         1 MOL         0.0000
     55 H17         0.3194    0.8516   -1.7604 H         1 MOL         0.0000
     56 H18         0.3013    8.1902   -3.1039 H         1 MOL         0.0000
     57 H19         2.7781    2.7814   -0.6801 H         1 MOL         0.0000
     58 H20         3.5439    1.5435    0.3164 H         1 MOL         0.0000
     59 H21        -2.7136    2.3980   -0.8667 H         1 MOL         0.0000
     60 H22        -1.7972    1.4730   -2.0568 H         1 MOL         0.0000
     61 H23         1.4971    9.2844   -5.0545 H         1 MOL         0.0000
     62 H24         0.4936    8.4396   -6.2113 H         1 MOL         0.0000
     63 H25        -1.5665    9.3558   -5.2124 H         1 MOL         0.0000
     64 H26        -0.6374   10.3154   -4.0608 H         1 MOL         0.0000
     65 H27        -1.7217    5.7174    1.4918 H         1 MOL         0.0000
     66 H28         1.5749   11.2277   -8.0719 H         1 MOL         0.0000
@<TRIPOS>BOND
     1    1    4 ar
     2    1    5 ar
     3    2    3 ar
     4    2    6 ar
     5    3    7 ar
     6    4    8 ar
     7    5    9 ar
     8    6   12 ar
     9    7   14 ar
    10    8   15 ar
    11    9   15 ar
    12   10   11 ar
    13   10   16 ar
    14   11   17 ar
    15   12   14 ar
    16   12   19 1
    17   13   16 ar
    18   13   18 ar
    19   13   20 1
    20   14   22 1
    21   15   26 1
    22   16   27 1
    23   17   18 ar
    24   17   36 1
    25   18   35 1
    26   19   30 am
    27   19   32 2
    28   20   33 2
    29   20   37 1
    30   21   28 1
    31   21   34 2
    32   21   38 1
    33   22   31 1
    34   23   25 1
    35   23   35 1
    36   24   30 1
    37   24   31 1
    38   25   29 1
    39   25   36 1
    40   26   30 1
    41   27   31 1
    42   28   29 1
    43    1   39 1
    44    2   40 1
    45    3   41 1
    46    4   42 1
    47    5   43 1
    48    6   44 1
    49    7   45 1
    50    8   46 1
    51    9   47 1
    52   10   48 1
    53   11   49 1
    54   22   50 1
    55   22   51 1
    56   23   52 1
    57   23   53 1
    58   24   54 1
    59   24   55 1
    60   25   56 1
    61   26   57 1
    62   26   58 1
    63   27   59 1
    64   27   60 1
    65   28   61 1
    66   28   62 1
    67   29   63 1
    68   29   64 1
    69   37   65 1
    70   38   66 1
