@<TRIPOS>MOLECULE
AVX-17375_3
   39    42     1     0     0
SMALL
No Charge or Current Charge


@<TRIPOS>ATOM
      1 C1          2.1980    1.1330   -1.1950 ca        1 MOL     -0.129008
      2 C2          1.9770   -0.2530   -1.2170 ca        1 MOL     -0.127408
      3 C3          1.2020    2.0040   -0.7520 ca        1 MOL     -0.115808
      4 C4          0.7550   -0.7860   -0.7980 ca        1 MOL     -0.110208
      5 C5         -4.7290   -1.3780    0.1470 ca        1 MOL     -0.143208
      6 C6         -5.8000   -1.8690    0.8980 ca        1 MOL     -0.088508
      7 C7         -3.2190   -2.9950    1.1630 ca        1 MOL     -0.099308
      8 C8         -0.0110    1.4670   -0.3500 ca        1 MOL     -0.086808
      9 C9         -0.2370    0.0840   -0.3720 ca        1 MOL     -0.083008
     10 C10        -3.4460   -1.9380    0.2790 ca        1 MOL     -0.022508
     11 C11        -5.5480   -2.9140    1.7640 ca        1 MOL      0.042492
     12 C12        -4.2930   -3.4620    1.8930 ca        1 MOL      0.102492
     13 C13        -1.9010   -3.5920    1.3190 c         1 MOL      0.670492
     14 C14        -1.2010    2.2040    0.1870 c3        1 MOL     -0.071308
     15 C15        -5.6400   -4.5090    3.2230 c3        1 MOL      0.320892
     16 C16        -1.6080   -0.2360    0.1630 c3        1 MOL     -0.009208
     17 C17        -2.3040    1.1410    0.0350 c3        1 MOL      0.140992
     18 C18        -2.3250   -1.3720   -0.5530 c3        1 MOL     -0.033308
     19 O1         -0.8850   -2.9960    1.6890 o         1 MOL     -0.538808
     20 O2         -6.4620   -3.5190    2.5710 os        1 MOL     -0.331608
     21 O3         -4.2620   -4.4780    2.7970 os        1 MOL     -0.324008
     22 O4         -1.8910   -4.9180    1.0100 oh        1 MOL     -0.593208
     23 O5         -2.9180    1.2810   -1.2470 oh        1 MOL     -0.595608
     24 H1          3.1570    1.5290   -1.5190 ha        1 MOL      0.130292
     25 H2          2.7660   -0.9170   -1.5580 ha        1 MOL      0.132192
     26 H3          1.3780    3.0740   -0.7250 ha        1 MOL      0.132892
     27 H4          0.6010   -1.8600   -0.8050 ha        1 MOL      0.137592
     28 H5         -4.8990   -0.5550   -0.5430 ha        1 MOL      0.149592
     29 H6         -6.7910   -1.4410    0.7990 ha        1 MOL      0.158592
     30 H7         -1.0300    2.4490    1.2400 hc        1 MOL      0.060892
     31 H8         -1.4100    3.1080   -0.3920 hc        1 MOL      0.059792
     32 H9         -5.6760   -4.3380    4.3060 h2        1 MOL      0.076692
     33 H10        -6.0510   -5.5020    3.0100 h2        1 MOL      0.076492
     34 H11        -1.4980   -0.4820    1.2250 hc        1 MOL      0.064792
     35 H12        -3.0900    1.2690    0.7860 h1        1 MOL      0.044992
     36 H13        -1.6090   -2.1660   -0.7970 hc        1 MOL      0.065692
     37 H14        -2.7200   -1.0140   -1.5110 hc        1 MOL      0.088092
     38 H15        -1.0070   -5.3300    1.1130 ho        1 MOL      0.442492
     39 H16        -3.2890    2.1760   -1.2760 ho        1 MOL      0.404392
@<TRIPOS>BOND
     1    1    2 ar  
     2    1    3 ar  
     3    2    4 ar  
     4    3    8 ar  
     5    4    9 ar  
     6    5    6 ar  
     7    5   10 ar  
     8    6   11 ar  
     9    7   10 ar  
    10    7   12 ar  
    11    7   13 1   
    12    8    9 ar  
    13    8   14 1   
    14    9   16 1   
    15   10   18 1   
    16   11   12 ar  
    17   11   20 1   
    18   12   21 1   
    19   13   19 2   
    20   13   22 1   
    21   14   17 1   
    22   15   20 1   
    23   15   21 1   
    24   16   17 1   
    25   16   18 1   
    26   17   23 1   
    27    1   24 1   
    28    2   25 1   
    29    3   26 1   
    30    4   27 1   
    31    5   28 1   
    32    6   29 1   
    33   14   30 1   
    34   14   31 1   
    35   15   32 1   
    36   15   33 1   
    37   16   34 1   
    38   17   35 1   
    39   18   36 1   
    40   18   37 1   
    41   22   38 1   
    42   23   39 1   
@<TRIPOS>SUBSTRUCTURE
     1 MOL         1 TEMP              0 ****  ****    0 ROOT
