@<TRIPOS>MOLECULE
AVX101119_0
   64    67     1     0     0
SMALL
No Charge or Current Charge


@<TRIPOS>ATOM
      1 C1         -1.5670    4.8120   -2.5560 ca        1 MOL     -0.119102
      2 C2         -1.4540    3.5970   -1.8810 ca        1 MOL     -0.159202
      3 C3          4.1840    2.2970   -2.5840 ca        1 MOL     -0.079002
      4 C4          2.4760    3.9860   -2.3230 ca        1 MOL     -0.088002
      5 C5         -1.8730    4.8280   -3.9170 ca        1 MOL     -0.183902
      6 C6          3.9750    2.2980   -3.9630 ca        1 MOL     -0.180102
      7 C7          2.2670    3.9870   -3.7020 ca        1 MOL     -0.183202
      8 C8          0.7040    1.9050    2.7440 ca        1 MOL     -0.091002
      9 C9         -1.3490    0.2940    1.6530 ca        1 MOL     -0.090202
     10 C10         0.8730    1.2790    1.5060 ca        1 MOL     -0.108002
     11 C11        -1.9540    2.4130   -3.9270 ca        1 MOL     -0.096702
     12 C12         3.4350    3.1410   -1.7640 ca        1 MOL     -0.165202
     13 C13        -1.6480    2.3970   -2.5660 ca        1 MOL     -0.137202
     14 C14        -0.1480    0.4790    0.9640 ca        1 MOL     -0.103602
     15 C15        -0.4910    1.7070    3.4040 ca        1 MOL      0.084098
     16 C16        -1.4900    0.9230    2.8730 ca        1 MOL      0.082398
     17 C17         3.0160    3.1430   -4.5220 ca        1 MOL      0.135698
     18 C18        -2.0670    3.6280   -4.6020 ca        1 MOL      0.142598
     19 C19         2.1270    1.4740    0.7910 c         1 MOL      0.653899
     20 C20        -2.1570    1.1460   -4.6570 c         1 MOL      0.915498
     21 C21        -2.1590    1.6920    4.7820 c3        1 MOL      0.320498
     22 C22         0.6170    0.2250   -2.7420 c3        1 MOL      0.079898
     23 C23         1.8170    4.0340   -6.3730 c3        1 MOL      0.110698
     24 C24        -2.4590    4.9540   -6.5380 c3        1 MOL      0.109698
     25 C25         3.6610    3.1400   -0.2800 c3        1 MOL      0.137298
     26 C26        -1.5190    1.1060   -1.8140 c3        1 MOL      0.173698
     27 C27         0.0280   -0.1940   -0.3590 c3        1 MOL      0.154598
     28 N1          2.4630    2.7880    0.4490 n         1 MOL     -0.554801
     29 N2         -0.0880    0.7380   -1.5120 n4        1 MOL     -0.696701
     30 O1         -1.1410    0.5860   -5.2100 o         1 MOL     -0.785802
     31 O2          2.8380    0.5000    0.4920 o         1 MOL     -0.608802
     32 O3         -3.3420    0.6510   -4.7130 o         1 MOL     -0.818801
     33 O4         -0.8330    2.2330    4.6120 os        1 MOL     -0.323602
     34 O5         -2.5830    0.8600    3.6830 os        1 MOL     -0.321602
     35 O6          2.8130    3.1460   -5.8680 os        1 MOL     -0.323702
     36 O7         -2.3640    3.6660   -5.9320 os        1 MOL     -0.297502
     37 H1         -1.4170    5.7460   -2.0230 ha        1 MOL      0.127798
     38 H2         -1.2150    3.5950   -0.8210 ha        1 MOL      0.117098
     39 H3          4.9330    1.6350   -2.1570 ha        1 MOL      0.137598
     40 H4          1.8880    4.6470   -1.6920 ha        1 MOL      0.137298
     41 H5         -1.9590    5.7780   -4.4370 ha        1 MOL      0.138698
     42 H6          4.5620    1.6390   -4.5970 ha        1 MOL      0.150198
     43 H7          1.5190    4.6480   -4.1310 ha        1 MOL      0.148198
     44 H8          1.4820    2.5260    3.1750 ha        1 MOL      0.171598
     45 H9         -2.1440   -0.3220    1.2480 ha        1 MOL      0.167498
     46 H10        -2.1790    1.0950    5.7020 h2        1 MOL      0.085198
     47 H11        -2.8660    2.5230    4.8860 h2        1 MOL      0.082498
     48 H12         0.1330   -0.7070   -3.0400 hx        1 MOL      0.097698
     49 H13         0.5220    0.9830   -3.5220 hx        1 MOL      0.128198
     50 H14         1.6640    0.0580   -2.4820 hx        1 MOL      0.078598
     51 H15         1.7570    3.9360   -7.4600 h1        1 MOL      0.069598
     52 H16         2.0740    5.0620   -6.1030 h1        1 MOL      0.036398
     53 H17         0.8520    3.7750   -5.9320 h1        1 MOL      0.037398
     54 H18        -2.7000    4.8420   -7.5980 h1        1 MOL      0.071398
     55 H19        -1.5090    5.4820   -6.4230 h1        1 MOL      0.035698
     56 H20        -3.2510    5.5210   -6.0440 h1        1 MOL      0.024298
     57 H21         4.4440    2.4230   -0.0090 h1        1 MOL      0.072598
     58 H22         3.9870    4.1250    0.0690 h1        1 MOL      0.065698
     59 H23        -2.0400    1.1540   -0.8520 hx        1 MOL      0.098498
     60 H24        -1.9450    0.2730   -2.3820 hx        1 MOL      0.110098
     61 H25         1.0150   -0.6670   -0.4400 hx        1 MOL      0.113698
     62 H26        -0.7250   -0.9770   -0.5140 hx        1 MOL      0.102398
     63 H27         1.8150    3.5390    0.6630 hn        1 MOL      0.329198
     64 H28         0.3880    1.6170   -1.2530 hn        1 MOL      0.479998
@<TRIPOS>BOND
     1    1    2 ar  
     2    1    5 ar  
     3    2   13 ar  
     4    3    6 ar  
     5    3   12 ar  
     6    4    7 ar  
     7    4   12 ar  
     8    5   18 ar  
     9    6   17 ar  
    10    7   17 ar  
    11    8   10 ar  
    12    8   15 ar  
    13    9   14 ar  
    14    9   16 ar  
    15   10   14 ar  
    16   10   19 1   
    17   11   13 ar  
    18   11   18 ar  
    19   11   20 1   
    20   12   25 1   
    21   13   26 1   
    22   14   27 1   
    23   15   16 ar  
    24   15   33 1   
    25   16   34 1   
    26   17   35 1   
    27   18   36 1   
    28   19   28 1   
    29   19   31 2   
    30   20   30 1   
    31   20   32 1   
    32   21   33 1   
    33   21   34 1   
    34   22   29 1   
    35   23   35 1   
    36   24   36 1   
    37   25   28 1   
    38   26   29 1   
    39   27   29 1   
    40    1   37 1   
    41    2   38 1   
    42    3   39 1   
    43    4   40 1   
    44    5   41 1   
    45    6   42 1   
    46    7   43 1   
    47    8   44 1   
    48    9   45 1   
    49   21   46 1   
    50   21   47 1   
    51   22   48 1   
    52   22   49 1   
    53   22   50 1   
    54   23   51 1   
    55   23   52 1   
    56   23   53 1   
    57   24   54 1   
    58   24   55 1   
    59   24   56 1   
    60   25   57 1   
    61   25   58 1   
    62   26   59 1   
    63   26   60 1   
    64   27   61 1   
    65   27   62 1   
    66   28   63 1   
    67   29   64 1   
@<TRIPOS>SUBSTRUCTURE
     1 MOL         1 TEMP              0 ****  ****    0 ROOT
