@<TRIPOS>MOLECULE
AVX-17287_0
   34    37     1     0     0
SMALL
No Charge or Current Charge


@<TRIPOS>ATOM
      1 C1         -1.2340    1.7020    0.9620 ca        1 MOL     -0.167994
      2 C2         -1.2210    0.4860    0.2810 ca        1 MOL     -0.130794
      3 C3         -2.0720    1.8950    2.0670 ca        1 MOL     -0.077094
      4 C4         -4.9930    0.6310    6.6840 ca        1 MOL     -0.149194
      5 C5         -2.0420   -0.5720    0.6800 ca        1 MOL     -0.152594
      6 C6         -4.7980    0.2350    8.0100 ca        1 MOL     -0.148394
      7 C7         -4.3730   -0.5830    3.4520 cc        1 MOL      0.018406
      8 C8         -2.9090    0.8430    2.4870 ca        1 MOL     -0.069294
      9 C9         -2.7500    1.5740    6.5920 ca        1 MOL     -0.066294
     10 C10        -3.9740    1.2970    5.9790 ca        1 MOL     -0.064494
     11 C11        -3.8590    0.6900    3.5360 cd        1 MOL     -0.111994
     12 C12        -2.8740   -0.3640    1.7860 ca        1 MOL      0.068206
     13 C13        -3.5800    0.5210    8.5910 ca        1 MOL      0.031106
     14 C14        -2.5830    1.1730    7.9020 ca        1 MOL      0.061106
     15 C15        -1.6680    2.2690    5.8760 c         1 MOL      0.923206
     16 C16        -1.8720    0.7450    9.9000 c3        1 MOL      0.318606
     17 C17        -4.2340    1.7080    4.5380 c3        1 MOL      0.031006
     18 N1         -3.7730   -1.2120    2.3930 na        1 MOL     -0.584194
     19 O1         -0.8090    1.5680    5.2200 o         1 MOL     -0.817394
     20 O2         -1.6140    3.5540    5.9290 o         1 MOL     -0.817794
     21 O3         -3.2120    0.2140    9.8650 os        1 MOL     -0.359594
     22 O4         -1.4660    1.3550    8.6570 os        1 MOL     -0.312894
     23 H1         -0.5860    2.5100    0.6340 ha        1 MOL      0.115406
     24 H2         -0.5620    0.3580   -0.5740 ha        1 MOL      0.111706
     25 H3         -2.0700    2.8490    2.5870 ha        1 MOL      0.139006
     26 H4         -5.9430    0.4190    6.2000 ha        1 MOL      0.116706
     27 H5         -2.0320   -1.5180    0.1490 ha        1 MOL      0.117606
     28 H6         -5.5810   -0.2780    8.5560 ha        1 MOL      0.127606
     29 H7         -5.1110   -1.1000    4.0500 h4        1 MOL      0.193306
     30 H8         -1.8130    1.4980   10.6950 h2        1 MOL      0.048606
     31 H9         -1.1770   -0.0690   10.1340 h2        1 MOL      0.048706
     32 H10        -5.3040    1.9860    4.4450 hc        1 MOL      0.063506
     33 H11        -3.7090    2.6670    4.3510 hc        1 MOL      0.063606
     34 H12        -3.9630   -2.1600    2.1000 hn        1 MOL      0.432606
@<TRIPOS>BOND
     1    1    2 ar  
     2    1    3 ar  
     3    2    5 ar  
     4    3    8 ar  
     5    4    6 ar  
     6    4   10 ar  
     7    5   12 ar  
     8    6   13 ar  
     9    7   11 2   
    10    7   18 1   
    11    8   11 1   
    12    8   12 ar  
    13    9   10 ar  
    14    9   14 ar  
    15    9   15 1   
    16   10   17 1   
    17   11   17 1   
    18   12   18 1   
    19   13   14 ar  
    20   13   21 1   
    21   14   22 1   
    22   15   19 1   
    23   15   20 1   
    24   16   21 1   
    25   16   22 1   
    26    1   23 1   
    27    2   24 1   
    28    3   25 1   
    29    4   26 1   
    30    5   27 1   
    31    6   28 1   
    32    7   29 1   
    33   16   30 1   
    34   16   31 1   
    35   17   32 1   
    36   17   33 1   
    37   18   34 1   
@<TRIPOS>SUBSTRUCTURE
     1 MOL         1 TEMP              0 ****  ****    0 ROOT
