@<TRIPOS>MOLECULE
AVX-17377_0
   35    38     1     0     0
SMALL
No Charge or Current Charge


@<TRIPOS>ATOM
      1 C1          5.4220    5.1230   -2.0880 ca        1 MOL     -0.181309
      2 C2          4.4710    6.1130   -2.3930 ca        1 MOL     -0.098809
      3 C3          5.0210    3.8330   -1.7290 ca        1 MOL     -0.089209
      4 C4         -0.0960    5.4500    0.2790 ca        1 MOL     -0.132109
      5 C5          3.1040    5.8300   -2.3430 ca        1 MOL     -0.158509
      6 C6         -0.8510    5.5570    1.4490 ca        1 MOL     -0.149509
      7 C7         -1.9290    4.3180   -0.8530 ca        1 MOL     -0.057209
      8 C8          3.6660    3.5630   -1.6820 ca        1 MOL     -0.146409
      9 C9         -0.6320    4.8340   -0.8660 ca        1 MOL     -0.100909
     10 C10         2.7260    4.5480   -1.9850 ca        1 MOL      0.083891
     11 C11        -2.1300    5.0390    1.4350 ca        1 MOL      0.041091
     12 C12        -2.6550    4.4360    0.3150 ca        1 MOL      0.061291
     13 C13         1.4900    2.6620   -1.4750 c         1 MOL      0.704591
     14 C14        -2.5140    3.6690   -2.0380 c         1 MOL      0.918791
     15 C15         2.9680    2.2880   -1.3330 c3        1 MOL     -0.111509
     16 C16        -4.1440    4.3890    1.8830 c3        1 MOL      0.318791
     17 C17         0.2200    4.7430   -2.0990 c3        1 MOL      0.147891
     18 N1          1.4390    4.0080   -1.8610 n         1 MOL     -0.362309
     19 O1         -3.1600    4.3920   -2.8850 o         1 MOL     -0.817509
     20 O2          0.5590    1.8950   -1.2780 o         1 MOL     -0.586809
     21 O3         -2.3600    2.3990   -2.1890 o         1 MOL     -0.805009
     22 O4         -3.0080    5.0520    2.4740 os        1 MOL     -0.358109
     23 O5         -3.9270    3.9960    0.5130 os        1 MOL     -0.312809
     24 H1          6.4800    5.3650   -2.1340 ha        1 MOL      0.116191
     25 H2          4.8060    7.1090   -2.6700 ha        1 MOL      0.123191
     26 H3          5.7550    3.0710   -1.4940 ha        1 MOL      0.122291
     27 H4          0.9160    5.8500    0.2610 ha        1 MOL      0.118091
     28 H5          2.3780    6.5990   -2.5800 ha        1 MOL      0.153391
     29 H6         -0.4420    6.0320    2.3330 ha        1 MOL      0.129891
     30 H7          3.2130    1.4920   -2.0410 hc        1 MOL      0.085591
     31 H8          3.1720    1.9910   -0.3020 hc        1 MOL      0.084191
     32 H9         -4.3740    3.4940    2.4730 h2        1 MOL      0.050191
     33 H10        -5.0050    5.0660    1.9220 h2        1 MOL      0.049691
     34 H11        -0.3240    4.2420   -2.9070 h1        1 MOL      0.084791
     35 H12         0.4950    5.7400   -2.4610 h1        1 MOL      0.074191
@<TRIPOS>BOND
     1    1    2 ar  
     2    1    3 ar  
     3    2    5 ar  
     4    3    8 ar  
     5    4    6 ar  
     6    4    9 ar  
     7    5   10 ar  
     8    6   11 ar  
     9    7    9 ar  
    10    7   12 ar  
    11    7   14 1   
    12    8   10 ar  
    13    8   15 1   
    14    9   17 1   
    15   10   18 1   
    16   11   12 ar  
    17   11   22 1   
    18   12   23 1   
    19   13   15 1   
    20   13   18 1   
    21   13   20 2   
    22   14   19 1   
    23   14   21 1   
    24   16   22 1   
    25   16   23 1   
    26   17   18 1   
    27    1   24 1   
    28    2   25 1   
    29    3   26 1   
    30    4   27 1   
    31    5   28 1   
    32    6   29 1   
    33   15   30 1   
    34   15   31 1   
    35   16   32 1   
    36   16   33 1   
    37   17   34 1   
    38   17   35 1   
@<TRIPOS>SUBSTRUCTURE
     1 MOL         1 TEMP              0 ****  ****    0 ROOT
